
     RDKit          3D

 23 22  0  0  0  0  0  0  0  0999 V2000
   38.3170   26.7830   54.5300 C   0  0  0  0  0  0  0  0  0  0  0  0
   39.7330   29.2230   50.5420 C   0  0  0  0  0  0  0  0  0  0  0  0
   38.0940   36.5270   60.7970 C   0  0  0  0  0  0  0  0  0  0  0  0
   39.3650   30.3070   54.5250 C   0  0  0  0  0  0  0  0  0  0  0  0
   39.5240   29.1340   52.1120 C   0  0  0  0  0  0  0  0  0  0  0  0
   38.6330   31.8290   57.9660 C   0  0  0  0  0  0  0  0  0  0  0  0
   37.1010   35.4360   61.1000 C   0  0  0  0  0  0  0  0  0  0  0  0
   38.4790   30.7740   56.8740 C   0  0  0  0  0  0  0  0  0  0  0  0
   39.6810   26.3620   54.5960 C   0  0  0  0  0  0  0  0  0  0  0  0
   39.2520   30.4440   52.9830 C   0  0  0  0  0  0  0  0  0  0  0  0
   38.8100   31.3320   55.5310 C   0  0  0  0  0  0  0  0  0  0  0  0
   38.4220   28.0810   52.2860 C   0  0  0  0  0  0  0  0  0  0  0  0
   38.3130   27.0890   51.3780 O   0  0  0  0  0  0  0  0  0  0  0  0
   36.8650   34.5650   59.8650 C   0  0  0  0  0  0  0  0  0  0  0  0
   38.0930   33.8460   59.3140 C   0  0  0  0  0  0  0  0  0  0  0  0
   37.6610   32.0900   54.9290 O   0  0  0  0  0  0  0  0  0  0  0  0
   37.8890   27.8620   53.6480 C   0  0  0  0  0  0  0  0  0  0  0  0
   37.4390   37.6580   60.1920 O   0  0  0  0  0  0  0  0  0  0  0  0
   37.7710   33.1040   58.0030 C   0  0  0  0  0  0  0  0  0  0  0  0
   37.3390   26.0860   55.4550 C   0  0  0  0  0  0  0  0  0  0  0  0
   38.9480   36.9260   61.9830 C   0  0  0  0  0  0  0  0  0  0  0  0
   37.1340   30.2320   56.8520 O   0  0  0  0  0  0  0  0  0  0  0  0
   39.3090   29.5960   57.3180 C   0  0  0  0  0  0  0  0  0  0  0  0
  1  9  1  0
  1 20  1  0
  3  7  1  0
  3 21  1  0
  4 11  1  0
  5  2  1  0
  5 12  1  0
  5 10  1  0
  6 19  1  0
  8 23  1  0
  8  6  1  0
 10  4  2  3
 11 16  1  0
 11  8  1  0
 12 13  1  0
 12 17  1  0
 14  7  1  0
 15 14  1  0
 17  1  1  0
 18  3  1  0
 19 15  1  0
 22  8  1  0
M  END
$$$$

     RDKit          3D

 20 21  0  0  0  0  0  0  0  0999 V2000
   38.6670   31.3370   56.2010 C   0  0  0  0  0  0  0  0  0  0  0  0
   37.9180   35.3890   60.3000 C   0  0  0  0  0  0  0  0  0  0  0  0
   39.8670   30.3420   51.9590 C   0  0  0  0  0  0  0  0  0  0  0  0
   39.6070   26.9270   53.4820 C   0  0  0  0  0  0  0  0  0  0  0  0
   40.1460   28.5780   50.2070 C   0  0  0  0  0  0  0  0  0  0  0  0
   38.6310   31.2420   54.7170 C   0  0  0  0  0  0  0  0  0  0  0  0
   36.9350   34.7740   59.4110 C   0  0  0  0  0  0  0  0  0  0  0  0
   39.1010   36.3220   62.0620 C   0  0  0  0  0  0  0  0  0  0  0  0
   37.6790   36.1430   61.4470 C   0  0  0  0  0  0  0  0  0  0  0  0
   38.9920   28.0150   52.5170 C   0  0  0  0  0  0  0  0  0  0  0  0
   40.4130   29.9350   50.7620 C   0  0  0  0  0  0  0  0  0  0  0  0
   39.5130   27.6690   51.1000 C   0  0  0  0  0  0  0  0  0  0  0  0
   37.4590   27.9540   53.1150 C   0  0  0  0  0  0  0  0  0  0  0  0
   39.2530   29.4960   52.8690 C   0  0  0  0  0  0  0  0  0  0  0  0
   38.4670   29.8740   54.0540 C   0  0  0  0  0  0  0  0  0  0  0  0
   35.8140   34.0610   60.1940 C   0  0  0  0  0  0  0  0  0  0  0  0
   37.7220   33.5720   57.1840 N   0  0  0  0  0  0  0  0  0  0  0  0
   37.8350   33.6510   58.7330 C   0  0  0  0  0  0  0  0  0  0  0  0
   37.4200   28.6980   54.7190 S   0  0  0  0  0  0  0  0  0  0  0  0
   38.8750   32.7470   56.6630 C   0  0  0  0  0  0  0  0  0  0  0  0
  1 20  1  0
  2  9  1  0
  3 14  2  0
  5 11  2  0
  5 12  1  0
  6  1  1  0
  7 16  1  0
  7  2  1  0
  9  8  1  0
 10 14  1  0
 10 13  1  0
 10  4  1  0
 11  3  1  0
 12 10  1  0
 13 19  1  0
 14 15  1  0
 15  6  1  0
 15 19  1  0
 17 18  1  0
 18  7  1  0
 20 17  1  0
M  END
$$$$

     RDKit          3D

 36 39  0  0  0  0  0  0  0  0999 V2000
   41.6950   29.0060   50.4260 F   0  0  0  0  0  0  0  0  0  0  0  0
   37.4930   37.8220   61.2800 C   0  0  0  0  0  0  0  0  0  0  0  0
   37.0440   32.6730   59.8900 C   0  0  0  0  0  0  0  0  0  0  0  0
   39.4840   31.4140   50.4430 C   0  0  0  0  0  0  0  0  0  0  0  0
   37.2700   33.4700   58.8050 C   0  0  0  0  0  0  0  0  0  0  0  0
   36.9240   33.7500   61.0870 N   0  0  0  0  0  0  0  0  0  0  0  0
   39.2210   25.9570   54.7090 O   0  0  0  0  0  0  0  0  0  0  0  0
   40.0970   27.5510   57.8240 C   0  0  0  0  0  0  0  0  0  0  0  0
   37.3380   30.5050   58.3820 C   0  0  0  0  0  0  0  0  0  0  0  0
   37.0740   37.1530   60.1130 N   0  0  0  0  0  0  0  0  0  0  0  0
   39.8080   38.4690   61.9350 C   0  0  0  0  0  0  0  0  0  0  0  0
   36.5960   35.8510   59.8110 C   0  0  0  0  0  0  0  0  0  0  0  0
   38.3810   32.8350   57.9750 C   0  0  0  0  0  0  0  0  0  0  0  0
   39.8880   30.1990   51.3250 C   0  0  0  0  0  0  0  0  0  0  0  0
   38.2410   32.4070   48.2670 O   0  0  0  0  0  0  0  0  0  0  0  0
   39.0160   28.4300   57.1530 C   0  0  0  0  0  0  0  0  0  0  0  0
   37.6730   34.8800   60.7230 C   0  0  0  0  0  0  0  0  0  0  0  0
   38.5770   38.6560   61.2940 O   0  0  0  0  0  0  0  0  0  0  0  0
   39.2540   28.1340   53.9790 N   0  0  0  0  0  0  0  0  0  0  0  0
   37.4540   31.1230   59.7570 C   0  0  0  0  0  0  0  0  0  0  0  0
   37.2480   34.7060   59.2470 C   0  0  0  0  0  0  0  0  0  0  0  0
   36.7240   37.7140   62.2110 O   0  0  0  0  0  0  0  0  0  0  0  0
   38.3210   31.2830   57.3630 C   0  0  0  0  0  0  0  0  0  0  0  0
   39.9710   29.5290   49.0500 O   0  0  0  0  0  0  0  0  0  0  0  0
   38.2870   30.5370   55.9860 C   0  0  0  0  0  0  0  0  0  0  0  0
   39.3320   27.2140   51.7630 C   0  0  0  0  0  0  0  0  0  0  0  0
   39.3250   31.5580   47.8630 C   0  0  0  0  0  0  0  0  0  0  0  0
   38.0100   29.0520   58.1960 C   0  0  0  0  0  0  0  0  0  0  0  0
   40.3130   29.0870   50.3740 C   0  0  0  0  0  0  0  0  0  0  0  0
   41.4780   27.9130   57.5930 C   0  0  0  0  0  0  0  0  0  0  0  0
   38.7630   28.2820   52.6230 C   0  0  0  0  0  0  0  0  0  0  0  0
   40.0360   30.9550   49.0900 C   0  0  0  0  0  0  0  0  0  0  0  0
   38.9260   27.1170   54.8810 C   0  0  0  0  0  0  0  0  0  0  0  0
   38.2130   27.6180   56.1130 C   0  0  0  0  0  0  0  0  0  0  0  0
   39.5120   30.4040   55.3640 O   0  0  0  0  0  0  0  0  0  0  0  0
   39.7900   27.7080   50.3770 C   0  0  0  0  0  0  0  0  0  0  0  0
  2 18  1  0
  2 22  2  0
  3 20  1  0
  3  6  1  0
  4 14  1  0
  5 13  1  0
  5 21  1  0
  5  3  1  0
  7 33  2  0
  9 28  1  0
  9 20  1  0
 10  2  1  0
 12 10  1  0
 12 17  1  0
 16 34  1  0
 16  8  1  0
 16 28  1  0
 17  6  1  0
 18 11  1  0
 19 33  1  0
 21 12  1  0
 21 17  1  0
 23 13  1  0
 23  9  1  0
 24 32  1  0
 24 29  1  0
 25 23  1  0
 26 31  1  0
 27 15  1  0
 27 32  1  0
 29 36  1  0
 29  1  1  0
 29 14  1  0
 30  8  1  0
 31 19  1  0
 32  4  1  0
 33 34  1  0
 35 25  1  0
 36 26  1  0
M  END
$$$$

     RDKit          3D

 37 41  0  0  0  0  0  0  0  0999 V2000
   39.1690   24.7560   56.7880 C   0  0  0  0  0  0  0  0  0  0  0  0
   39.9980   30.5810   52.1130 C   0  0  0  0  0  0  0  0  0  0  0  0
   39.9810   27.8380   48.1870 N   0  0  0  0  0  0  0  0  0  0  0  0
   38.8610   28.5090   53.9260 C   0  0  0  0  0  0  0  0  0  0  0  0
   38.7120   27.9710   55.1550 N   0  0  0  0  0  0  0  0  0  0  0  0
   38.7160   30.0440   55.5470 C   0  0  0  0  0  0  0  0  0  0  0  0
   39.5160   36.3410   61.8130 C   0  0  0  0  0  0  0  0  0  0  0  0
   39.3910   26.6490   55.4050 C   0  0  0  0  0  0  0  0  0  0  0  0
   40.0120   28.7190   49.0720 C   0  0  0  0  0  0  0  0  0  0  0  0
   38.8380   27.9290   52.5900 C   0  0  0  0  0  0  0  0  0  0  0  0
   37.2510   34.1880   61.8240 O   0  0  0  0  0  0  0  0  0  0  0  0
   38.6110   31.9230   59.7150 C   0  0  0  0  0  0  0  0  0  0  0  0
   38.0310   28.8850   55.9540 C   0  0  0  0  0  0  0  0  0  0  0  0
   37.9320   33.4710   57.8450 C   0  0  0  0  0  0  0  0  0  0  0  0
   36.6770   35.8970   60.4000 C   0  0  0  0  0  0  0  0  0  0  0  0
   40.5530   26.9410   56.3190 C   0  0  0  0  0  0  0  0  0  0  0  0
   37.1700   37.1350   59.7860 C   0  0  0  0  0  0  0  0  0  0  0  0
   38.3860   25.5460   55.7460 C   0  0  0  0  0  0  0  0  0  0  0  0
   37.7280   33.3470   55.3310 O   0  0  0  0  0  0  0  0  0  0  0  0
   40.1340   37.1380   62.6030 O   0  0  0  0  0  0  0  0  0  0  0  0
   38.5190   36.3950   62.0820 N   0  0  0  0  0  0  0  0  0  0  0  0
   39.6540   32.4240   56.1770 C   0  0  0  0  0  0  0  0  0  0  0  0
   40.6110   36.0190   63.1650 C   0  0  0  0  0  0  0  0  0  0  0  0
   39.7180   29.5940   51.1170 C   0  0  0  0  0  0  0  0  0  0  0  0
   36.7810   33.9100   58.0750 O   0  0  0  0  0  0  0  0  0  0  0  0
   39.0930   29.7870   54.2590 N   0  0  0  0  0  0  0  0  0  0  0  0
   38.7770   33.2960   59.0520 C   0  0  0  0  0  0  0  0  0  0  0  0
   38.4840   34.3570   59.9870 N   0  0  0  0  0  0  0  0  0  0  0  0
   37.5710   34.8220   60.7300 C   0  0  0  0  0  0  0  0  0  0  0  0
   39.1700   28.3960   51.3550 C   0  0  0  0  0  0  0  0  0  0  0  0
   38.6100   33.4420   56.4150 C   0  0  0  0  0  0  0  0  0  0  0  0
   40.3330   34.9340   62.3510 C   0  0  0  0  0  0  0  0  0  0  0  0
   36.7440   28.8260   56.8280 C   0  0  0  0  0  0  0  0  0  0  0  0
   39.1260   31.0210   56.3860 N   0  0  0  0  0  0  0  0  0  0  0  0
   40.1040   29.7500   49.9200 N   0  0  0  0  0  0  0  0  0  0  0  0
   39.7030   30.6930   53.4040 C   0  0  0  0  0  0  0  0  0  0  0  0
   37.3210   37.0320   61.2810 C   0  0  0  0  0  0  0  0  0  0  0  0
  2 36  2  0
  3  9  3  0
  4 26  1  0
  4  5  1  0
  5  8  1  0
  5 13  1  0
  6 13  2  0
  6 34  1  0
  7 21  1  0
  7 32  1  0
  7 20  1  0
  7 23  1  0
  8 18  1  0
  8 16  1  0
  9 35  1  0
 10  4  2  0
 13 33  1  0
 14 25  2  0
 14 27  1  0
 15 29  1  0
 15 37  1  0
 17 15  1  0
 17 37  1  0
 18  1  1  0
 20 23  1  0
 22 34  1  0
 22 31  1  0
 23 32  1  0
 24 30  2  0
 24  2  1  0
 26  6  1  0
 27 12  1  0
 27 28  1  0
 28 29  1  0
 29 11  2  0
 30 10  1  0
 31 19  1  0
 31 14  1  0
 35 24  1  0
 36 26  1  0
 37 21  1  0
M  END
$$$$

     RDKit          3D

 34 37  0  0  0  0  0  0  0  0999 V2000
   39.6790   31.1470   53.0950 C   0  0  0  0  0  0  0  0  0  0  0  0
   37.2310   37.9100   61.8460 C   0  0  0  0  0  0  0  0  0  0  0  0
   39.3530   32.5440   61.3380 C   0  0  0  0  0  0  0  0  0  0  0  0
   39.1440   30.1300   53.9340 N   0  0  0  0  0  0  0  0  0  0  0  0
   38.4290   31.7240   55.1340 C   0  0  0  0  0  0  0  0  0  0  0  0
   39.3560   30.2610   61.4380 O   0  0  0  0  0  0  0  0  0  0  0  0
   39.9650   28.0890   50.1330 C   0  0  0  0  0  0  0  0  0  0  0  0
   38.3880   27.7850   55.7360 C   0  0  0  0  0  0  0  0  0  0  0  0
   39.1180   31.2120   60.7580 C   0  0  0  0  0  0  0  0  0  0  0  0
   39.0680   28.1600   52.3450 O   0  0  0  0  0  0  0  0  0  0  0  0
   40.0400   28.7850   51.4460 C   0  0  0  0  0  0  0  0  0  0  0  0
   37.3790   26.7400   53.9220 C   0  0  0  0  0  0  0  0  0  0  0  0
   36.7980   34.0170   59.0280 C   0  0  0  0  0  0  0  0  0  0  0  0
   38.7170   34.2270   55.9170 O   0  0  0  0  0  0  0  0  0  0  0  0
   39.9070   28.5990   49.0200 O   0  0  0  0  0  0  0  0  0  0  0  0
   38.2780   29.9080   58.7860 C   0  0  0  0  0  0  0  0  0  0  0  0
   37.3260   35.6500   60.9300 C   0  0  0  0  0  0  0  0  0  0  0  0
   38.4220   28.9740   53.3390 C   0  0  0  0  0  0  0  0  0  0  0  0
   39.2920   30.7230   55.3580 C   0  0  0  0  0  0  0  0  0  0  0  0
   37.7940   28.0930   54.3840 C   0  0  0  0  0  0  0  0  0  0  0  0
   38.5150   32.4790   57.4420 O   0  0  0  0  0  0  0  0  0  0  0  0
   38.6900   31.1810   59.4540 N   0  0  0  0  0  0  0  0  0  0  0  0
   36.4110   35.2790   59.8140 C   0  0  0  0  0  0  0  0  0  0  0  0
   38.0390   26.5930   56.1780 N   0  0  0  0  0  0  0  0  0  0  0  0
   38.5870   32.2970   58.7360 C   0  0  0  0  0  0  0  0  0  0  0  0
   37.4420   25.8630   55.1250 C   0  0  0  0  0  0  0  0  0  0  0  0
   38.6820   32.8940   56.2080 C   0  0  0  0  0  0  0  0  0  0  0  0
   38.1090   33.4310   59.4570 C   0  0  0  0  0  0  0  0  0  0  0  0
   38.1230   34.6790   61.4390 O   0  0  0  0  0  0  0  0  0  0  0  0
   37.7470   37.0730   60.6850 C   0  0  0  0  0  0  0  0  0  0  0  0
   39.8090   30.5630   51.3500 S   0  0  0  0  0  0  0  0  0  0  0  0
   39.1820   28.7920   59.2650 C   0  0  0  0  0  0  0  0  0  0  0  0
   38.6890   33.7280   60.6730 C   0  0  0  0  0  0  0  0  0  0  0  0
   37.4190   37.7020   59.5300 O   0  0  0  0  0  0  0  0  0  0  0  0
  1  4  1  0
  4 19  1  0
  5 19  1  0
  5 27  1  0
  8 24  1  0
  9  3  1  0
  9  6  2  0
 11  7  1  0
 11 10  1  0
 12 26  1  0
 13 23  1  0
 14 27  2  0
 15  7  2  0
 16 32  1  0
 16 22  1  0
 17 30  1  0
 17 29  1  0
 18 10  1  0
 18  4  1  0
 18 20  1  0
 20 12  1  0
 20  8  1  0
 22  9  1  0
 23 17  1  0
 25 21  1  0
 25 22  1  0
 25 28  1  0
 26 24  1  0
 27 21  1  0
 28 13  1  0
 28 33  1  0
 30  2  1  0
 31 11  1  0
 31  1  1  0
 33  3  1  0
 33 29  1  0
 34 30  1  0
M  END
$$$$

     RDKit          3D

  9  8  0  0  0  0  0  0  0  0999 V2000
   37.5770   33.7520   58.7140 C   0  0  0  0  0  0  0  0  0  0  0  0
   38.4920   33.1550   57.6310 C   0  0  0  0  0  0  0  0  0  0  0  0
   37.3140   29.6750   55.5170 C   0  0  0  0  0  0  0  0  0  0  0  0
   38.1400   31.3960   55.4670 S   0  0  0  0  0  0  0  0  0  0  0  0
   36.5740   36.8770   59.1460 O   0  0  0  0  0  0  0  0  0  0  0  0
   38.1050   34.8270   59.8750 C   0  0  0  0  0  0  0  0  0  0  0  0
   37.9600   37.0050   60.8020 O   0  0  0  0  0  0  0  0  0  0  0  0
   37.3700   36.0700   59.8420 C   0  0  0  0  0  0  0  0  0  0  0  0
   38.3350   31.6920   57.1330 C   0  0  0  0  0  0  0  0  0  0  0  0
  1  6  1  0
  2  1  1  0
  4  3  1  0
  4  9  1  0
  5  8  2  0
  8  6  1  0
  8  7  1  0
  9  2  1  0
M  END
$$$$

     RDKit          3D

 18 18  0  0  0  0  0  0  0  0999 V2000
   36.7980   35.7970   60.8220 C   0  0  0  0  0  0  0  0  0  0  0  0
   39.3280   27.9330   50.7980 C   0  0  0  0  0  0  0  0  0  0  0  0
   38.9980   27.4020   54.6170 C   0  0  0  0  0  0  0  0  0  0  0  0
   38.2030   28.5150   53.8440 C   0  0  0  0  0  0  0  0  0  0  0  0
   37.9250   31.4910   56.5980 C   0  0  0  0  0  0  0  0  0  0  0  0
   37.4240   29.7020   54.6860 C   0  0  0  0  0  0  0  0  0  0  0  0
   38.8310   32.8260   57.4770 C   0  0  0  0  0  0  0  0  0  0  0  0
   36.9810   36.8830   59.7150 C   0  0  0  0  0  0  0  0  0  0  0  0
   37.4670   29.7490   56.1330 C   0  0  0  0  0  0  0  0  0  0  0  0
   38.8790   29.4770   52.7410 O   0  0  0  0  0  0  0  0  0  0  0  0
   39.0230   30.7480   55.7730 C   0  0  0  0  0  0  0  0  0  0  0  0
   39.8560   29.0180   51.8280 C   0  0  0  0  0  0  0  0  0  0  0  0
   36.9850   33.9410   58.4770 O   0  0  0  0  0  0  0  0  0  0  0  0
   39.4510   33.5910   60.3740 O   0  0  0  0  0  0  0  0  0  0  0  0
   40.2330   30.3960   51.0550 C   0  0  0  0  0  0  0  0  0  0  0  0
   37.7900   32.8850   58.9280 C   0  0  0  0  0  0  0  0  0  0  0  0
   37.3930   34.5480   60.7600 O   0  0  0  0  0  0  0  0  0  0  0  0
   38.2080   33.7740   60.1220 C   0  0  0  0  0  0  0  0  0  0  0  0
  2 12  1  0
  4  3  1  0
  4  6  1  0
  5  7  1  0
  7 16  1  0
  8  1  1  0
  9  6  1  0
  9  5  1  0
 10  4  1  0
 11  9  1  0
 11  5  1  0
 12 10  1  0
 15 12  1  0
 16 13  1  0
 16 18  1  0
 17  1  1  0
 18 14  2  0
 18 17  1  0
M  END
$$$$

     RDKit          3D

 35 37  0  0  0  0  0  0  0  0999 V2000
   39.9930   26.9970   56.5530 C   0  0  0  0  0  0  0  0  0  0  0  0
   37.8290   37.5400   60.9000 C   0  0  0  0  0  0  0  0  0  0  0  0
   37.0270   38.5330   61.3710 O   0  0  0  0  0  0  0  0  0  0  0  0
   37.4420   30.5390   59.1260 C   0  0  0  0  0  0  0  0  0  0  0  0
   38.3030   28.5090   55.0950 C   0  0  0  0  0  0  0  0  0  0  0  0
   39.6970   29.4460   51.8820 C   0  0  0  0  0  0  0  0  0  0  0  0
   36.0220   30.5190   59.1190 O   0  0  0  0  0  0  0  0  0  0  0  0
   40.1160   30.5370   51.0670 C   0  0  0  0  0  0  0  0  0  0  0  0
   40.0480   27.9840   50.0410 C   0  0  0  0  0  0  0  0  0  0  0  0
   39.6350   28.1520   51.3930 C   0  0  0  0  0  0  0  0  0  0  0  0
   37.5090   35.2490   60.1430 C   0  0  0  0  0  0  0  0  0  0  0  0
   40.5220   29.0680   49.2910 C   0  0  0  0  0  0  0  0  0  0  0  0
   38.6550   34.9040   60.8730 C   0  0  0  0  0  0  0  0  0  0  0  0
   39.0490   28.0090   58.9090 C   0  0  0  0  0  0  0  0  0  0  0  0
   38.0590   30.0450   57.9380 N   0  0  0  0  0  0  0  0  0  0  0  0
   39.4390   27.4460   53.9460 S   0  0  0  0  0  0  0  0  0  0  0  0
   36.4230   30.1840   55.6580 O   0  0  0  0  0  0  0  0  0  0  0  0
   39.2060   28.3630   56.4130 C   0  0  0  0  0  0  0  0  0  0  0  0
   38.2420   31.1960   54.6400 C   0  0  0  0  0  0  0  0  0  0  0  0
   38.9040   37.1990   61.6540 C   0  0  0  0  0  0  0  0  0  0  0  0
   37.1130   36.5630   60.1430 C   0  0  0  0  0  0  0  0  0  0  0  0
   39.1270   26.9060   52.2440 C   0  0  0  0  0  0  0  0  0  0  0  0
   41.4100   27.1030   57.1220 C   0  0  0  0  0  0  0  0  0  0  0  0
   40.5110   30.3800   49.7590 C   0  0  0  0  0  0  0  0  0  0  0  0
   38.6260   31.8350   60.9390 C   0  0  0  0  0  0  0  0  0  0  0  0
   38.8870   27.0690   59.4030 O   0  0  0  0  0  0  0  0  0  0  0  0
   37.9430   31.9410   59.5880 C   0  0  0  0  0  0  0  0  0  0  0  0
   36.9950   26.0430   53.9190 C   0  0  0  0  0  0  0  0  0  0  0  0
   38.0370   32.4020   55.3270 O   0  0  0  0  0  0  0  0  0  0  0  0
   36.8810   34.2640   59.2010 C   0  0  0  0  0  0  0  0  0  0  0  0
   37.8180   30.0620   55.4140 C   0  0  0  0  0  0  0  0  0  0  0  0
   36.7890   32.8640   59.6170 N   0  0  0  0  0  0  0  0  0  0  0  0
   38.3310   28.6450   57.7570 C   0  0  0  0  0  0  0  0  0  0  0  0
   37.8650   27.1490   53.0900 C   0  0  0  0  0  0  0  0  0  0  0  0
   39.3650   35.8520   61.6360 C   0  0  0  0  0  0  0  0  0  0  0  0
  1 23  1  0
  2  3  1  0
  2 20  1  0
  4  7  1  0
  4 27  1  0
  5 31  1  0
  5 18  1  0
  8  6  2  0
  9 10  2  0
 10  6  1  0
 11 21  1  0
 11 13  2  0
 12 24  2  0
 12  9  1  0
 13 35  1  0
 14 26  2  0
 15  4  1  0
 16  5  1  0
 18  1  1  0
 18 33  1  0
 19 29  1  0
 19 31  1  0
 21  2  2  0
 22 10  1  0
 22 34  1  0
 22 16  1  0
 24  8  1  0
 27 32  1  0
 27 25  1  0
 30 32  1  0
 30 11  1  0
 31 17  1  0
 33 15  1  0
 33 14  1  0
 34 28  1  0
 34 16  1  0
 35 20  2  0
M  END
$$$$

     RDKit          3D

 22 26  0  0  0  0  0  0  0  0999 V2000
   40.3330   35.2740   62.2690 C   0  0  0  0  0  0  0  0  0  0  0  0
   37.8780   32.2190   57.3360 O   0  0  0  0  0  0  0  0  0  0  0  0
   41.3830   34.8590   63.2100 C   0  0  0  0  0  0  0  0  0  0  0  0
   36.4940   35.3240   60.0110 C   0  0  0  0  0  0  0  0  0  0  0  0
   38.1130   34.4700   60.0270 N   0  0  0  0  0  0  0  0  0  0  0  0
   37.8830   33.9390   57.9660 C   0  0  0  0  0  0  0  0  0  0  0  0
   36.5920   36.7200   60.3870 C   0  0  0  0  0  0  0  0  0  0  0  0
   36.1430   37.7810   63.7670 C   0  0  0  0  0  0  0  0  0  0  0  0
   39.5720   36.4440   62.3860 N   0  0  0  0  0  0  0  0  0  0  0  0
   39.7050   33.2820   56.1460 C   0  0  0  0  0  0  0  0  0  0  0  0
   38.6020   36.2540   61.5620 C   0  0  0  0  0  0  0  0  0  0  0  0
   36.7410   38.8140   62.9160 N   0  0  0  0  0  0  0  0  0  0  0  0
   38.4670   32.5310   56.1670 C   0  0  0  0  0  0  0  0  0  0  0  0
   38.4740   33.3700   57.0900 C   0  0  0  0  0  0  0  0  0  0  0  0
   39.8860   34.3970   61.2890 C   0  0  0  0  0  0  0  0  0  0  0  0
   37.3670   38.4040   61.7920 N   0  0  0  0  0  0  0  0  0  0  0  0
   38.7440   35.0660   60.7990 C   0  0  0  0  0  0  0  0  0  0  0  0
   36.4940   36.5600   62.9140 C   0  0  0  0  0  0  0  0  0  0  0  0
   37.8790   32.7620   54.7650 C   0  0  0  0  0  0  0  0  0  0  0  0
   37.8190   33.3330   59.4120 C   0  0  0  0  0  0  0  0  0  0  0  0
   37.8350   39.4300   60.9290 C   0  0  0  0  0  0  0  0  0  0  0  0
   37.3290   37.0590   61.6520 C   0  0  0  0  0  0  0  0  0  0  0  0
  1  9  1  0
  1  3  1  0
  4  5  1  0
  4  7  1  0
  5 17  1  0
  6 20  1  0
 10 13  1  0
 10 14  1  0
 11 22  1  0
 11  9  1  0
 12  8  2  0
 13 19  1  0
 13 14  1  0
 13  2  1  0
 14  2  1  0
 14  6  1  0
 15  1  2  0
 16 12  1  0
 17 15  1  0
 17 11  2  0
 18  8  1  0
 20  5  1  0
 21 16  1  0
 22  7  1  0
 22 16  1  0
 22 18  1  0
M  END
$$$$

     RDKit          3D

 29 30  0  0  0  0  0  0  0  0999 V2000
   37.9410   32.2100   58.6840 C   0  0  0  0  0  0  0  0  0  0  0  0
   37.7480   26.2730   55.9770 C   0  0  0  0  0  0  0  0  0  0  0  0
   36.9960   35.8880   60.5590 C   0  0  0  0  0  0  0  0  0  0  0  0
   40.1690   30.2120   49.2890 C   0  0  0  0  0  0  0  0  0  0  0  0
   36.8070   34.5470   60.5140 O   0  0  0  0  0  0  0  0  0  0  0  0
   39.3810   28.1070   50.0580 O   0  0  0  0  0  0  0  0  0  0  0  0
   37.1730   31.9680   60.0340 C   0  0  0  0  0  0  0  0  0  0  0  0
   38.7020   32.1070   59.7700 C   0  0  0  0  0  0  0  0  0  0  0  0
   37.6540   31.1770   57.7850 N   0  0  0  0  0  0  0  0  0  0  0  0
   39.2970   29.5140   55.1700 C   0  0  0  0  0  0  0  0  0  0  0  0
   38.9940   27.6610   53.3090 C   0  0  0  0  0  0  0  0  0  0  0  0
   40.0030   28.2330   52.4240 C   0  0  0  0  0  0  0  0  0  0  0  0
   39.9150   29.5920   51.7680 C   0  0  0  0  0  0  0  0  0  0  0  0
   39.1930   29.8340   56.4900 C   0  0  0  0  0  0  0  0  0  0  0  0
   39.8470   29.3780   50.3570 C   0  0  0  0  0  0  0  0  0  0  0  0
   39.1050   26.9810   55.7770 C   0  0  0  0  0  0  0  0  0  0  0  0
   39.2950   30.3510   53.9760 C   0  0  0  0  0  0  0  0  0  0  0  0
   40.5190   26.0200   53.0860 C   0  0  0  0  0  0  0  0  0  0  0  0
   35.6410   32.4660   59.7790 C   0  0  0  0  0  0  0  0  0  0  0  0
   38.1950   33.5360   57.9420 C   0  0  0  0  0  0  0  0  0  0  0  0
   39.8430   29.4080   57.3600 O   0  0  0  0  0  0  0  0  0  0  0  0
   38.2720   31.0530   56.5120 C   0  0  0  0  0  0  0  0  0  0  0  0
   36.8050   36.7430   59.6760 O   0  0  0  0  0  0  0  0  0  0  0  0
   35.6160   34.0470   59.7760 C   0  0  0  0  0  0  0  0  0  0  0  0
   39.2260   28.0410   54.7620 C   0  0  0  0  0  0  0  0  0  0  0  0
   39.7450   30.5180   52.7420 C   0  0  0  0  0  0  0  0  0  0  0  0
   36.9450   30.5390   60.3090 O   0  0  0  0  0  0  0  0  0  0  0  0
   39.1730   26.2720   53.0980 O   0  0  0  0  0  0  0  0  0  0  0  0
   40.2280   26.0400   56.1590 C   0  0  0  0  0  0  0  0  0  0  0  0
  1 20  1  0
  1  8  1  0
  1  7  1  0
  5  3  1  0
  6 15  1  0
  7 27  1  0
  8  7  1  0
  9  1  1  0
 10 14  1  0
 11 28  1  0
 11 25  1  0
 12 11  1  0
 13 15  1  0
 13 12  1  0
 13 26  1  0
 14 22  1  0
 14 21  2  0
 15  4  1  0
 16  2  1  0
 16 29  1  0
 17 10  1  0
 18 28  1  0
 19  7  1  0
 22  9  1  0
 23  3  2  0
 24 19  1  0
 24  5  1  0
 25 10  2  0
 25 16  1  0
 26 17  1  0
M  END
$$$$

     RDKit          3D

 44 48  0  0  0  0  0  0  0  0999 V2000
   37.7040   24.0280   57.4340 C   0  0  0  0  0  0  0  0  0  0  0  0
   36.7970   35.0870   61.7810 C   0  0  0  0  0  0  0  0  0  0  0  0
   38.9590   35.4750   60.5190 C   0  0  0  0  0  0  0  0  0  0  0  0
   39.6840   30.5820   50.5130 C   0  0  0  0  0  0  0  0  0  0  0  0
   40.0980   29.3370   50.0490 C   0  0  0  0  0  0  0  0  0  0  0  0
   39.6910   36.6350   60.8830 O   0  0  0  0  0  0  0  0  0  0  0  0
   38.2560   32.1580   55.0270 C   0  0  0  0  0  0  0  0  0  0  0  0
   39.0160   28.8270   54.8560 C   0  0  0  0  0  0  0  0  0  0  0  0
   37.5010   38.9780   60.5450 O   0  0  0  0  0  0  0  0  0  0  0  0
   39.3420   31.2250   55.4790 C   0  0  0  0  0  0  0  0  0  0  0  0
   37.0130   34.6250   59.2150 C   0  0  0  0  0  0  0  0  0  0  0  0
   40.3280   26.7800   57.7680 C   0  0  0  0  0  0  0  0  0  0  0  0
   39.5720   34.5710   60.4300 O   0  0  0  0  0  0  0  0  0  0  0  0
   36.9590   37.7520   62.3960 O   0  0  0  0  0  0  0  0  0  0  0  0
   39.4840   31.5300   49.7360 F   0  0  0  0  0  0  0  0  0  0  0  0
   40.0380   28.1870   50.7920 C   0  0  0  0  0  0  0  0  0  0  0  0
   38.8130   27.8950   56.0820 C   0  0  0  0  0  0  0  0  0  0  0  0
   39.5300   30.7300   51.9100 C   0  0  0  0  0  0  0  0  0  0  0  0
   40.4340   29.3230   48.7570 F   0  0  0  0  0  0  0  0  0  0  0  0
   35.6410   34.1720   59.2940 C   0  0  0  0  0  0  0  0  0  0  0  0
   37.0510   37.8420   61.1810 C   0  0  0  0  0  0  0  0  0  0  0  0
   39.3510   28.0050   59.8460 C   0  0  0  0  0  0  0  0  0  0  0  0
   39.5930   25.5450   55.7880 C   0  0  0  0  0  0  0  0  0  0  0  0
   34.7820   35.0800   58.6520 C   0  0  0  0  0  0  0  0  0  0  0  0
   38.2690   26.8320   53.7830 C   0  0  0  0  0  0  0  0  0  0  0  0
   41.6440   26.9990   57.2410 C   0  0  0  0  0  0  0  0  0  0  0  0
   39.5640   25.5380   57.3010 C   0  0  0  0  0  0  0  0  0  0  0  0
   38.3350   33.3030   56.1220 C   0  0  0  0  0  0  0  0  0  0  0  0
   38.9100   30.5930   56.6420 O   0  0  0  0  0  0  0  0  0  0  0  0
   37.9260   33.1540   58.9830 S   0  0  0  0  0  0  0  0  0  0  0  0
   41.5860   28.2250   58.9770 N   0  0  0  0  0  0  0  0  0  0  0  0
   40.3180   27.7160   58.9570 C   0  0  0  0  0  0  0  0  0  0  0  0
   39.5590   29.6370   52.8000 C   0  0  0  0  0  0  0  0  0  0  0  0
   37.8740   28.2480   54.1830 O   0  0  0  0  0  0  0  0  0  0  0  0
   39.7120   28.2870   52.1270 C   0  0  0  0  0  0  0  0  0  0  0  0
   38.2030   25.3340   57.8930 C   0  0  0  0  0  0  0  0  0  0  0  0
   39.6030   30.0200   54.2900 C   0  0  0  0  0  0  0  0  0  0  0  0
   38.3910   32.5690   57.5180 C   0  0  0  0  0  0  0  0  0  0  0  0
   42.6160   27.7120   57.7940 O   0  0  0  0  0  0  0  0  0  0  0  0
   37.8700   31.1490   57.2760 O   0  0  0  0  0  0  0  0  0  0  0  0
   37.4660   35.4040   60.4270 C   0  0  0  0  0  0  0  0  0  0  0  0
   39.5560   26.9500   52.9380 C   0  0  0  0  0  0  0  0  0  0  0  0
   37.1060   36.9030   60.2380 N   0  0  0  0  0  0  0  0  0  0  0  0
   38.4360   26.4910   55.2870 C   0  0  0  0  0  0  0  0  0  0  0  0
  1 36  1  0
  3  6  1  0
  4 18  1  0
  5  4  2  0
  5 16  1  0
  7 28  1  0
  8 17  1  0
  9 21  2  0
 10  7  1  0
 10 29  1  0
 11 20  1  0
 11 41  1  0
 12 27  1  0
 12 32  1  0
 13  3  2  0
 15  4  1  0
 16 35  2  0
 18 33  2  0
 19  5  1  0
 21 14  1  0
 24 20  1  0
 25 42  1  0
 25 34  1  0
 25 44  1  0
 26 12  1  0
 26 39  1  0
 27 23  1  0
 27 36  1  0
 28 38  1  0
 29 40  1  0
 30 11  1  0
 32 31  2  0
 32 22  1  0
 34  8  1  0
 35 33  1  0
 35 42  1  0
 37 33  1  0
 37  8  1  0
 37 10  1  0
 38 30  1  0
 39 31  1  0
 40 38  1  0
 41  3  1  0
 41  2  1  0
 43 41  1  0
 43 21  1  0
 44 23  1  0
 44 17  1  0
M  END
$$$$

     RDKit          3D

 20 22  0  0  0  0  0  0  0  0999 V2000
   39.0600   27.7000   53.8600 C   0  0  0  0  0  0  0  0  0  0  0  0
   36.9450   30.0010   55.8420 C   0  0  0  0  0  0  0  0  0  0  0  0
   39.5600   27.9550   55.2150 N   0  0  0  0  0  0  0  0  0  0  0  0
   39.2710   27.2340   56.2780 C   0  0  0  0  0  0  0  0  0  0  0  0
   39.9930   28.3120   49.3850 N   0  0  0  0  0  0  0  0  0  0  0  0
   38.2500   29.4130   56.4960 C   0  0  0  0  0  0  0  0  0  0  0  0
   40.0170   30.6560   51.1530 C   0  0  0  0  0  0  0  0  0  0  0  0
   39.7000   25.9970   56.7220 C   0  0  0  0  0  0  0  0  0  0  0  0
   39.4720   29.4030   51.5460 C   0  0  0  0  0  0  0  0  0  0  0  0
   38.9410   25.0710   56.1540 C   0  0  0  0  0  0  0  0  0  0  0  0
   39.3800   28.9820   53.0110 C   0  0  0  0  0  0  0  0  0  0  0  0
   39.3550   27.1860   51.4820 O   0  0  0  0  0  0  0  0  0  0  0  0
   39.5010   30.4540   54.1280 S   0  0  0  0  0  0  0  0  0  0  0  0
   39.5850   28.0920   50.6840 C   0  0  0  0  0  0  0  0  0  0  0  0
   39.3620   29.3220   55.4600 C   0  0  0  0  0  0  0  0  0  0  0  0
   39.8420   29.7220   48.8830 C   0  0  0  0  0  0  0  0  0  0  0  0
   38.4000   28.0450   57.1570 C   0  0  0  0  0  0  0  0  0  0  0  0
   39.3270   31.6030   49.6350 F   0  0  0  0  0  0  0  0  0  0  0  0
   40.2110   30.7320   49.7790 C   0  0  0  0  0  0  0  0  0  0  0  0
   38.2550   27.7790   58.5310 O   0  0  0  0  0  0  0  0  0  0  0  0
  3  1  1  0
  3 15  1  0
  3  4  1  0
  4  8  1  0
  4 17  1  0
  5 14  1  0
  6  2  1  0
  6 17  1  0
  9  7  1  0
  9 11  1  0
 10  8  1  0
 11  1  1  0
 11 13  1  0
 14 12  2  0
 14  9  1  0
 15 13  1  0
 15  6  1  0
 16  5  1  0
 16 19  1  0
 17 20  1  0
 19 18  1  0
 19  7  1  0
M  END
$$$$

     RDKit          3D

 34 36  0  0  0  0  0  0  0  0999 V2000
   40.5430   29.4830   50.3160 C   0  0  0  0  0  0  0  0  0  0  0  0
   36.9890   29.5920   58.8150 C   0  0  0  0  0  0  0  0  0  0  0  0
   39.7210   29.5620   51.5930 N   0  0  0  0  0  0  0  0  0  0  0  0
   39.6760   26.9710   56.8990 C   0  0  0  0  0  0  0  0  0  0  0  0
   39.3930   26.8480   53.4370 O   0  0  0  0  0  0  0  0  0  0  0  0
   39.7840   28.5170   48.3170 O   0  0  0  0  0  0  0  0  0  0  0  0
   37.2660   32.4430   59.5180 N   0  0  0  0  0  0  0  0  0  0  0  0
   38.0820   33.5860   59.8230 C   0  0  0  0  0  0  0  0  0  0  0  0
   37.3720   31.1410   61.6140 O   0  0  0  0  0  0  0  0  0  0  0  0
   38.7670   28.5110   51.6960 C   0  0  0  0  0  0  0  0  0  0  0  0
   36.9490   36.9080   59.6430 C   0  0  0  0  0  0  0  0  0  0  0  0
   37.7970   29.6460   55.2200 S   0  0  0  0  0  0  0  0  0  0  0  0
   37.5500   29.3460   57.6330 C   0  0  0  0  0  0  0  0  0  0  0  0
   40.0960   30.5860   52.5320 C   0  0  0  0  0  0  0  0  0  0  0  0
   37.9330   35.8320   60.1550 C   0  0  0  0  0  0  0  0  0  0  0  0
   39.0090   28.9680   54.2320 C   0  0  0  0  0  0  0  0  0  0  0  0
   37.8250   30.9570   55.5340 O   0  0  0  0  0  0  0  0  0  0  0  0
   38.0340   37.6080   61.3900 O   0  0  0  0  0  0  0  0  0  0  0  0
   38.8710   27.5350   50.5640 C   0  0  0  0  0  0  0  0  0  0  0  0
   38.2300   36.2960   61.3840 C   0  0  0  0  0  0  0  0  0  0  0  0
   35.8990   29.9670   59.6350 C   0  0  0  0  0  0  0  0  0  0  0  0
   36.9370   37.6830   60.5240 N   0  0  0  0  0  0  0  0  0  0  0  0
   39.2770   33.5000   59.8270 O   0  0  0  0  0  0  0  0  0  0  0  0
   35.2010   32.3280   60.8520 O   0  0  0  0  0  0  0  0  0  0  0  0
   38.4950   27.9460   53.0990 C   0  0  0  0  0  0  0  0  0  0  0  0
   39.8990   30.1780   54.0330 C   0  0  0  0  0  0  0  0  0  0  0  0
   39.5990   28.4690   56.7730 C   0  0  0  0  0  0  0  0  0  0  0  0
   38.3590   29.0280   56.6850 C   0  0  0  0  0  0  0  0  0  0  0  0
   36.4090   29.4260   54.8200 O   0  0  0  0  0  0  0  0  0  0  0  0
   39.9850   28.2360   49.7320 C   0  0  0  0  0  0  0  0  0  0  0  0
   40.4430   30.7300   49.5030 C   0  0  0  0  0  0  0  0  0  0  0  0
   39.3590   35.8960   62.2170 C   0  0  0  0  0  0  0  0  0  0  0  0
   36.3400   31.5260   60.4560 S   0  0  0  0  0  0  0  0  0  0  0  0
   37.4010   34.6060   59.9390 N   0  0  0  0  0  0  0  0  0  0  0  0
  1 31  1  0
  1  3  1  0
  2 21  1  0
  3 10  1  0
  3 14  1  0
  7  8  1  0
  7 33  1  0
  8 23  2  0
  8 34  1  0
 10 19  1  0
 10 25  1  0
 11 15  1  0
 11 22  1  0
 12 17  2  0
 12 28  1  0
 13  2  2  0
 14 26  1  0
 15 34  1  0
 15 20  1  0
 16 12  1  0
 20 18  1  0
 20 32  1  0
 21 33  1  0
 22 18  1  0
 25  5  1  0
 25 16  1  0
 26 16  1  0
 27  4  1  0
 28 27  1  0
 28 13  2  0
 29 12  2  0
 30  6  1  0
 30  1  1  0
 30 19  1  0
 33 24  2  0
 33  9  2  0
M  END
$$$$

     RDKit          3D

 24 26  0  0  0  0  0  0  0  0999 V2000
   40.0410   30.3700   49.9910 C   0  0  0  0  0  0  0  0  0  0  0  0
   39.2520   28.2520   53.6200 C   0  0  0  0  0  0  0  0  0  0  0  0
   39.6080   29.6690   53.6090 C   0  0  0  0  0  0  0  0  0  0  0  0
   39.2880   28.3240   51.1860 C   0  0  0  0  0  0  0  0  0  0  0  0
   40.4600   29.7130   48.8550 F   0  0  0  0  0  0  0  0  0  0  0  0
   38.6580   32.4500   59.6730 C   0  0  0  0  0  0  0  0  0  0  0  0
   38.2950   32.2190   56.6550 C   0  0  0  0  0  0  0  0  0  0  0  0
   38.3630   32.4720   55.4900 O   0  0  0  0  0  0  0  0  0  0  0  0
   37.9950   33.2750   57.4870 N   0  0  0  0  0  0  0  0  0  0  0  0
   37.6150   30.4890   58.2560 C   0  0  0  0  0  0  0  0  0  0  0  0
   38.3320   30.9500   59.5100 C   0  0  0  0  0  0  0  0  0  0  0  0
   39.0390   27.4040   54.7840 C   0  0  0  0  0  0  0  0  0  0  0  0
   39.0680   27.7110   52.3930 C   0  0  0  0  0  0  0  0  0  0  0  0
   39.8600   30.3140   52.3970 C   0  0  0  0  0  0  0  0  0  0  0  0
   39.6110   35.2690   60.8190 C   0  0  0  0  0  0  0  0  0  0  0  0
   38.0530   35.3050   60.7170 C   0  0  0  0  0  0  0  0  0  0  0  0
   37.5590   36.7510   60.8000 C   0  0  0  0  0  0  0  0  0  0  0  0
   38.7330   28.2300   56.0310 C   0  0  0  0  0  0  0  0  0  0  0  0
   39.7070   29.6310   51.1590 C   0  0  0  0  0  0  0  0  0  0  0  0
   37.7660   33.4250   58.9520 C   0  0  0  0  0  0  0  0  0  0  0  0
   39.9370   28.3520   56.8620 C   0  0  0  0  0  0  0  0  0  0  0  0
   39.1540   29.6290   56.7870 C   0  0  0  0  0  0  0  0  0  0  0  0
   38.5260   30.8070   57.0770 N   0  0  0  0  0  0  0  0  0  0  0  0
   37.4870   34.6730   59.4610 C   0  0  0  0  0  0  0  0  0  0  0  0
  1 19  1  0
  2 12  1  0
  3  2  1  0
  4 13  1  0
  5  1  1  0
  7 23  1  0
  7  9  1  0
  8  7  2  0
  9 20  1  0
 10 11  1  0
 11  6  1  0
 13  2  2  0
 14  3  2  0
 16 17  1  0
 16 15  1  0
 18 12  1  0
 18 22  1  0
 18 21  1  0
 19  4  2  0
 19 14  1  0
 20 24  1  0
 20  6  1  0
 22 21  1  0
 22 23  1  0
 23 10  1  0
 24 16  1  0
M  END
$$$$

     RDKit          3D

 20 19  0  0  0  0  0  0  0  0999 V2000
   38.5070   32.9010   57.5940 C   0  0  0  0  0  0  0  0  0  0  0  0
   39.3140   27.9060   52.6610 C   0  0  0  0  0  0  0  0  0  0  0  0
   38.5080   32.0510   58.8130 C   0  0  0  0  0  0  0  0  0  0  0  0
   37.7980   28.9030   54.4740 C   0  0  0  0  0  0  0  0  0  0  0  0
   38.4200   37.0260   61.0760 O   0  0  0  0  0  0  0  0  0  0  0  0
   36.0150   34.7290   59.6170 N   0  0  0  0  0  0  0  0  0  0  0  0
   38.1350   32.2110   56.3210 C   0  0  0  0  0  0  0  0  0  0  0  0
   37.2660   35.0340   60.3730 C   0  0  0  0  0  0  0  0  0  0  0  0
   39.5400   27.4530   51.2250 C   0  0  0  0  0  0  0  0  0  0  0  0
   39.6980   30.6310   54.3770 C   0  0  0  0  0  0  0  0  0  0  0  0
   38.4440   30.0370   54.9940 C   0  0  0  0  0  0  0  0  0  0  0  0
   37.6060   36.5650   60.2660 C   0  0  0  0  0  0  0  0  0  0  0  0
   39.2650   28.6420   50.2680 C   0  0  0  0  0  0  0  0  0  0  0  0
   37.0350   37.2150   59.4110 O   0  0  0  0  0  0  0  0  0  0  0  0
   38.4640   34.4140   59.7570 C   0  0  0  0  0  0  0  0  0  0  0  0
   38.4980   32.4540   61.2480 O   0  0  0  0  0  0  0  0  0  0  0  0
   40.2190   29.7250   50.3120 C   0  0  0  0  0  0  0  0  0  0  0  0
   37.9670   28.4240   53.0690 C   0  0  0  0  0  0  0  0  0  0  0  0
   37.9100   30.7200   56.2800 C   0  0  0  0  0  0  0  0  0  0  0  0
   38.9660   32.9900   60.0070 C   0  0  0  0  0  0  0  0  0  0  0  0
  1  3  1  0
  2 18  2  3
  3 20  1  0
  4 11  1  0
  7  1  2  3
  8  6  1  0
  9  2  1  0
 11 10  1  0
 11 19  1  0
 12  8  1  0
 12  5  1  0
 13 17  1  0
 13  9  1  0
 14 12  2  0
 15 20  1  0
 15  8  1  0
 18  4  1  0
 19  7  1  0
 20 16  1  0
M  END
$$$$

     RDKit          3D

 34 35  0  0  0  0  0  0  0  0999 V2000
   38.5070   28.4770   57.6280 C   0  0  0  0  0  0  0  0  0  0  0  0
   37.6150   28.0620   54.5060 C   0  0  0  0  0  0  0  0  0  0  0  0
   37.2400   37.6580   60.3180 N   0  0  0  0  0  0  0  0  0  0  0  0
   37.4050   29.6830   55.1170 C   0  0  0  0  0  0  0  0  0  0  0  0
   39.5600   29.2700   52.8510 C   0  0  0  0  0  0  0  0  0  0  0  0
   38.2130   35.2250   60.8040 C   0  0  0  0  0  0  0  0  0  0  0  0
   35.7060   36.6310   59.0230 O   0  0  0  0  0  0  0  0  0  0  0  0
   38.1570   37.5640   61.3910 C   0  0  0  0  0  0  0  0  0  0  0  0
   38.1900   33.3000   57.7010 C   0  0  0  0  0  0  0  0  0  0  0  0
   39.3570   26.7070   53.1390 C   0  0  0  0  0  0  0  0  0  0  0  0
   36.6240   36.7600   59.7610 C   0  0  0  0  0  0  0  0  0  0  0  0
   38.8090   29.1550   47.7810 O   0  0  0  0  0  0  0  0  0  0  0  0
   37.8920   30.6120   54.4310 C   0  0  0  0  0  0  0  0  0  0  0  0
   38.6870   26.0330   55.6080 C   0  0  0  0  0  0  0  0  0  0  0  0
   38.3730   36.3130   61.2710 C   0  0  0  0  0  0  0  0  0  0  0  0
   38.6730   30.4350   55.9510 C   0  0  0  0  0  0  0  0  0  0  0  0
   38.7950   27.0620   54.4970 C   0  0  0  0  0  0  0  0  0  0  0  0
   37.4200   34.2210   60.6420 C   0  0  0  0  0  0  0  0  0  0  0  0
   40.0180   30.4880   52.2050 C   0  0  0  0  0  0  0  0  0  0  0  0
   38.3330   31.7500   58.1990 C   0  0  0  0  0  0  0  0  0  0  0  0
   39.4640   27.9980   52.2210 C   0  0  0  0  0  0  0  0  0  0  0  0
   36.8870   32.0550   60.1910 C   0  0  0  0  0  0  0  0  0  0  0  0
   39.1890   27.0660   57.9480 C   0  0  0  0  0  0  0  0  0  0  0  0
   39.4240   28.0580   50.6650 C   0  0  0  0  0  0  0  0  0  0  0  0
   39.5900   29.4500   50.0130 C   0  0  0  0  0  0  0  0  0  0  0  0
   39.8330   26.3060   56.6190 C   0  0  0  0  0  0  0  0  0  0  0  0
   36.1040   34.4290   60.9000 O   0  0  0  0  0  0  0  0  0  0  0  0
   37.8510   30.9220   56.9930 O   0  0  0  0  0  0  0  0  0  0  0  0
   40.0010   30.5610   50.8140 C   0  0  0  0  0  0  0  0  0  0  0  0
   38.4340   29.3570   59.0060 C   0  0  0  0  0  0  0  0  0  0  0  0
   39.3690   29.7330   48.5780 C   0  0  0  0  0  0  0  0  0  0  0  0
   39.3500   31.0800   48.4200 O   0  0  0  0  0  0  0  0  0  0  0  0
   37.9410   32.9960   60.6010 N   0  0  0  0  0  0  0  0  0  0  0  0
   37.7380   30.9880   59.3720 C   0  0  0  0  0  0  0  0  0  0  0  0
  1 23  1  0
  1 30  1  0
  2  4  1  0
  3  8  1  0
  4 13  1  0
  4 16  1  0
  6 15  1  0
  7 11  2  0
 11  3  1  0
 12 31  2  0
 14 26  1  0
 15  8  1  0
 16 28  1  0
 17 10  1  0
 17  2  1  0
 17 14  1  0
 18  6  1  0
 18 27  2  0
 19  5  2  0
 20  9  1  0
 20 34  1  0
 21  5  1  0
 21 10  1  0
 22 33  1  0
 24 21  2  0
 25 24  1  0
 25 29  2  0
 26 23  1  0
 28 20  1  0
 29 19  1  0
 30 34  1  0
 31 25  1  0
 32 31  1  0
 33 18  1  0
 34 22  1  0
M  END
$$$$

     RDKit          3D

 34 38  0  0  0  0  0  0  0  0999 V2000
   39.5580   29.4260   52.0830 C   0  0  0  0  0  0  0  0  0  0  0  0
   36.5730   35.7640   59.7250 C   0  0  0  0  0  0  0  0  0  0  0  0
   37.8340   30.9380   56.4360 C   0  0  0  0  0  0  0  0  0  0  0  0
   37.7330   30.4630   57.6940 C   0  0  0  0  0  0  0  0  0  0  0  0
   39.7590   30.7940   50.0460 C   0  0  0  0  0  0  0  0  0  0  0  0
   40.1120   29.6450   49.3480 C   0  0  0  0  0  0  0  0  0  0  0  0
   39.9640   25.5840   54.7830 C   0  0  0  0  0  0  0  0  0  0  0  0
   39.2070   25.2480   56.0940 C   0  0  0  0  0  0  0  0  0  0  0  0
   37.6740   29.7210   55.4190 C   0  0  0  0  0  0  0  0  0  0  0  0
   40.1430   28.4010   50.0270 C   0  0  0  0  0  0  0  0  0  0  0  0
   38.5650   26.4570   53.0050 O   0  0  0  0  0  0  0  0  0  0  0  0
   37.8860   33.5670   59.7850 C   0  0  0  0  0  0  0  0  0  0  0  0
   38.2040   32.6470   58.6690 C   0  0  0  0  0  0  0  0  0  0  0  0
   38.5720   33.1650   57.3270 C   0  0  0  0  0  0  0  0  0  0  0  0
   37.7100   35.0020   60.0790 C   0  0  0  0  0  0  0  0  0  0  0  0
   39.4530   30.6590   51.3900 C   0  0  0  0  0  0  0  0  0  0  0  0
   36.6950   37.0770   60.1850 N   0  0  0  0  0  0  0  0  0  0  0  0
   39.5990   37.9700   62.2250 C   0  0  0  0  0  0  0  0  0  0  0  0
   37.9020   32.5260   56.2080 N   0  0  0  0  0  0  0  0  0  0  0  0
   40.2300   36.6790   62.1490 C   0  0  0  0  0  0  0  0  0  0  0  0
   39.5350   32.0750   49.2250 C   0  0  0  0  0  0  0  0  0  0  0  0
   39.4750   26.3790   57.1380 C   0  0  0  0  0  0  0  0  0  0  0  0
   40.7520   28.4660   56.9500 C   0  0  0  0  0  0  0  0  0  0  0  0
   39.4920   27.8670   56.9690 C   0  0  0  0  0  0  0  0  0  0  0  0
   39.3240   29.1060   53.4210 C   0  0  0  0  0  0  0  0  0  0  0  0
   38.6090   28.4650   55.5990 C   0  0  0  0  0  0  0  0  0  0  0  0
   39.2590   26.6280   53.9220 C   0  0  0  0  0  0  0  0  0  0  0  0
   38.5470   35.8180   60.9110 C   0  0  0  0  0  0  0  0  0  0  0  0
   39.2110   28.0710   54.3050 C   0  0  0  0  0  0  0  0  0  0  0  0
   37.8410   37.1270   60.9570 C   0  0  0  0  0  0  0  0  0  0  0  0
   39.7490   35.6480   61.4960 N   0  0  0  0  0  0  0  0  0  0  0  0
   39.8390   28.3100   51.3980 C   0  0  0  0  0  0  0  0  0  0  0  0
   38.1500   31.2770   58.8070 C   0  0  0  0  0  0  0  0  0  0  0  0
   38.3180   38.1650   61.7520 C   0  0  0  0  0  0  0  0  0  0  0  0
  1 25  1  0
  2 15  2  0
  2 17  1  0
  3  9  1  0
  3  4  1  0
  4 33  1  0
  5 16  1  0
  6 10  1  0
  6  5  2  0
  7  8  1  0
  8 22  1  0
 10 32  2  0
 11 27  2  0
 12 15  1  0
 13 33  1  0
 13 12  2  3
 14 13  1  0
 16  1  2  0
 17 30  2  0
 19  3  1  0
 19 14  1  0
 20 18  1  0
 21  5  1  0
 24 23  1  0
 24 22  1  0
 25 29  2  3
 26  9  1  0
 26 24  1  0
 27 29  1  0
 27  7  1  0
 28 15  1  0
 28 30  1  0
 28 31  1  0
 29 26  1  0
 30 34  1  0
 31 20  2  0
 32  1  1  0
 34 18  2  0
M  END
$$$$

     RDKit          3D

 38 43  0  0  0  0  0  0  0  0999 V2000
   38.0220   35.1730   61.1650 C   0  0  0  0  0  0  0  0  0  0  0  0
   37.0670   34.6660   60.0760 C   0  0  0  0  0  0  0  0  0  0  0  0
   39.4320   34.6580   57.4470 C   0  0  0  0  0  0  0  0  0  0  0  0
   40.0010   31.1900   49.3420 C   0  0  0  0  0  0  0  0  0  0  0  0
   39.9710   29.0380   50.6530 N   0  0  0  0  0  0  0  0  0  0  0  0
   39.3580   28.3400   51.7290 C   0  0  0  0  0  0  0  0  0  0  0  0
   37.3190   34.1210   58.6190 O   0  0  0  0  0  0  0  0  0  0  0  0
   36.1660   33.5350   60.6380 C   0  0  0  0  0  0  0  0  0  0  0  0
   38.1320   29.2390   58.9120 C   0  0  0  0  0  0  0  0  0  0  0  0
   38.0180   26.8360   53.8920 C   0  0  0  0  0  0  0  0  0  0  0  0
   38.8430   30.3930   53.0600 C   0  0  0  0  0  0  0  0  0  0  0  0
   37.4470   30.5390   58.5480 O   0  0  0  0  0  0  0  0  0  0  0  0
   38.8410   29.0180   52.9080 C   0  0  0  0  0  0  0  0  0  0  0  0
   36.7210   32.3720   60.9060 O   0  0  0  0  0  0  0  0  0  0  0  0
   38.5290   30.9660   54.2900 C   0  0  0  0  0  0  0  0  0  0  0  0
   40.3930   28.1840   49.4950 C   0  0  0  0  0  0  0  0  0  0  0  0
   38.2890   32.3950   55.0930 C   0  0  0  0  0  0  0  0  0  0  0  0
   38.6400   32.5840   57.8610 N   0  0  0  0  0  0  0  0  0  0  0  0
   38.1890   28.8920   55.2340 N   0  0  0  0  0  0  0  0  0  0  0  0
   38.8960   32.0600   56.3930 C   0  0  0  0  0  0  0  0  0  0  0  0
   38.9840   26.0890   54.8100 C   0  0  0  0  0  0  0  0  0  0  0  0
   38.4990   30.1120   55.3480 C   0  0  0  0  0  0  0  0  0  0  0  0
   38.2980   28.2970   53.9860 C   0  0  0  0  0  0  0  0  0  0  0  0
   36.2860   35.8980   59.7550 C   0  0  0  0  0  0  0  0  0  0  0  0
   38.0900   30.6260   61.1070 C   0  0  0  0  0  0  0  0  0  0  0  0
   36.6510   37.1710   60.0430 C   0  0  0  0  0  0  0  0  0  0  0  0
   40.2500   30.4130   50.7060 C   0  0  0  0  0  0  0  0  0  0  0  0
   38.0940   31.7070   58.9240 C   0  0  0  0  0  0  0  0  0  0  0  0
   38.4020   36.4550   61.4050 C   0  0  0  0  0  0  0  0  0  0  0  0
   38.2310   34.0270   61.9680 C   0  0  0  0  0  0  0  0  0  0  0  0
   37.6570   37.5830   60.9240 C   0  0  0  0  0  0  0  0  0  0  0  0
   40.3600   28.9400   48.1300 C   0  0  0  0  0  0  0  0  0  0  0  0
   39.1350   30.6740   56.4630 C   0  0  0  0  0  0  0  0  0  0  0  0
   39.5580   30.2260   48.1890 C   0  0  0  0  0  0  0  0  0  0  0  0
   38.9810   32.8580   61.1380 C   0  0  0  0  0  0  0  0  0  0  0  0
   38.4750   33.9020   57.8150 C   0  0  0  0  0  0  0  0  0  0  0  0
   39.2480   27.0290   51.6560 O   0  0  0  0  0  0  0  0  0  0  0  0
   38.0180   31.9290   60.4490 C   0  0  0  0  0  0  0  0  0  0  0  0
  1 29  1  0
  1 30  1  0
  2 24  1  0
  2  8  1  0
  2  1  1  0
  3 36  2  0
  4 27  1  0
  5 27  1  0
  5  6  1  0
  6 13  1  0
  7  2  1  0
  8 14  1  0
 10 23  1  0
 10 21  1  0
 11 15  1  0
 12  9  1  0
 13 11  2  0
 13 23  1  0
 15 17  1  0
 15 22  2  0
 16  5  1  0
 18 28  1  0
 19 22  1  0
 20 17  1  0
 20 33  1  0
 20 18  1  0
 22 33  1  0
 23 19  2  0
 24 26  2  0
 26 31  1  0
 28 12  1  0
 28 38  1  0
 31 29  1  0
 32 34  1  0
 32 16  1  0
 34  4  1  0
 35 30  1  0
 36 18  1  0
 36  7  1  0
 37  6  2  0
 38 14  1  0
 38 25  1  0
 38 35  1  0
M  END
$$$$

     RDKit          3D

 34 36  0  0  0  0  0  0  0  0999 V2000
   39.7510   25.7130   54.9720 C   0  0  0  0  0  0  0  0  0  0  0  0
   36.4960   33.2060   60.4850 C   0  0  0  0  0  0  0  0  0  0  0  0
   39.7690   29.3060   50.5010 C   0  0  0  0  0  0  0  0  0  0  0  0
   39.6830   30.6020   51.1070 C   0  0  0  0  0  0  0  0  0  0  0  0
   39.4200   28.0630   52.2760 C   0  0  0  0  0  0  0  0  0  0  0  0
   36.8350   37.4100   60.2400 O   0  0  0  0  0  0  0  0  0  0  0  0
   38.4060   29.0770   57.6360 C   0  0  0  0  0  0  0  0  0  0  0  0
   40.0850   33.9610   60.9380 C   0  0  0  0  0  0  0  0  0  0  0  0
   38.5010   33.0110   57.1460 C   0  0  0  0  0  0  0  0  0  0  0  0
   39.1610   32.0850   48.9890 C   0  0  0  0  0  0  0  0  0  0  0  0
   36.9720   36.8870   61.3730 C   0  0  0  0  0  0  0  0  0  0  0  0
   39.7460   28.0890   51.2060 C   0  0  0  0  0  0  0  0  0  0  0  0
   39.0540   30.5970   55.7140 C   0  0  0  0  0  0  0  0  0  0  0  0
   39.1290   33.7310   60.2450 C   0  0  0  0  0  0  0  0  0  0  0  0
   40.4820   35.3820   61.5660 C   0  0  0  0  0  0  0  0  0  0  0  0
   37.0180   29.3660   58.2580 C   0  0  0  0  0  0  0  0  0  0  0  0
   39.9210   26.8750   55.8330 C   0  0  0  0  0  0  0  0  0  0  0  0
   37.9780   31.7530   57.8130 C   0  0  0  0  0  0  0  0  0  0  0  0
   36.4730   34.4100   61.3640 C   0  0  0  0  0  0  0  0  0  0  0  0
   35.8040   32.0650   61.0560 C   0  0  0  0  0  0  0  0  0  0  0  0
   39.2360   36.2250   61.4170 C   0  0  0  0  0  0  0  0  0  0  0  0
   38.6380   33.2990   48.4540 C   0  0  0  0  0  0  0  0  0  0  0  0
   37.8490   33.0750   59.8360 C   0  0  0  0  0  0  0  0  0  0  0  0
   37.5580   27.6480   55.1080 C   0  0  0  0  0  0  0  0  0  0  0  0
   37.7500   35.5140   61.4770 C   0  0  0  0  0  0  0  0  0  0  0  0
   39.4630   30.8800   48.3450 N   0  0  0  0  0  0  0  0  0  0  0  0
   39.3790   30.4010   52.8840 C   0  0  0  0  0  0  0  0  0  0  0  0
   39.0390   28.2410   54.8480 P   0  0  0  0  0  0  0  0  0  0  0  0
   38.1930   31.8150   59.2120 N   0  0  0  0  0  0  0  0  0  0  0  0
   36.3470   37.1920   62.4400 O   0  0  0  0  0  0  0  0  0  0  0  0
   38.8620   31.6400   56.7300 C   0  0  0  0  0  0  0  0  0  0  0  0
   39.2690   29.1530   53.3720 C   0  0  0  0  0  0  0  0  0  0  0  0
   38.6740   29.2600   56.0550 N   0  0  0  0  0  0  0  0  0  0  0  0
   39.5100   31.8400   50.4390 N   0  0  0  0  0  0  0  0  0  0  0  0
  1 17  1  0
  2 20  1  0
  2 19  1  0
  3  4  2  0
  3 12  1  0
  4 27  1  0
  5 32  1  0
  6 11  2  0
  7 16  1  0
  8 15  1  0
  9 18  1  0
 10 34  1  0
 11 30  1  0
 12  5  2  0
 13 33  1  0
 14  8  2  0
 18 29  1  0
 19 25  1  0
 21 25  1  0
 21 15  1  0
 22 10  1  0
 23 14  2  0
 23  2  1  0
 25 11  1  0
 26 10  2  0
 27 32  2  0
 28 24  1  0
 28 17  1  0
 28 33  1  0
 29 23  1  0
 31 13  1  0
 31  9  1  0
 31 18  1  0
 32 28  1  0
 33  7  1  0
 34  4  1  0
M  END
$$$$

     RDKit          3D

 10 10  0  0  0  0  0  0  0  0999 V2000
   40.0140   28.5220   49.7530 C   0  0  0  0  0  0  0  0  0  0  0  0
   36.9700   29.7720   55.2480 C   0  0  0  0  0  0  0  0  0  0  0  0
   37.6950   28.7680   54.3610 C   0  0  0  0  0  0  0  0  0  0  0  0
   39.1840   27.9700   52.5300 S   0  0  0  0  0  0  0  0  0  0  0  0
   38.5440   31.1700   56.8990 C   0  0  0  0  0  0  0  0  0  0  0  0
   39.2320   30.6060   53.8300 C   0  0  0  0  0  0  0  0  0  0  0  0
   38.6620   29.2000   53.5320 C   0  0  0  0  0  0  0  0  0  0  0  0
   39.1090   27.7020   49.2680 O   0  0  0  0  0  0  0  0  0  0  0  0
   37.9940   31.2430   55.1180 S   0  0  0  0  0  0  0  0  0  0  0  0
   39.9860   28.3570   51.2850 C   0  0  0  0  0  0  0  0  0  0  0  0
  1 10  1  0
  3  2  1  0
  6  9  1  0
  7  4  1  0
  7  6  1  0
  7  3  1  0
  8  1  1  0
  9  2  1  0
  9  5  1  0
 10  4  1  0
M  END
$$$$

     RDKit          3D

 27 28  0  0  0  0  0  0  0  0999 V2000
   38.4750   32.3000   56.8440 C   0  0  0  0  0  0  0  0  0  0  0  0
   37.0140   29.9970   57.8160 O   0  0  0  0  0  0  0  0  0  0  0  0
   35.8770   31.3780   59.9640 O   0  0  0  0  0  0  0  0  0  0  0  0
   37.0560   31.8520   60.6170 P   0  0  0  0  0  0  0  0  0  0  0  0
   38.9590   30.0710   56.0900 C   0  0  0  0  0  0  0  0  0  0  0  0
   37.9550   37.8650   60.9530 N   0  0  0  0  0  0  0  0  0  0  0  0
   38.1780   27.9140   55.2340 C   0  0  0  0  0  0  0  0  0  0  0  0
   39.4560   25.7200   55.5640 C   0  0  0  0  0  0  0  0  0  0  0  0
   37.9950   33.3460   57.8910 C   0  0  0  0  0  0  0  0  0  0  0  0
   38.6680   33.8890   60.2030 C   0  0  0  0  0  0  0  0  0  0  0  0
   37.9230   32.1910   55.4340 N   0  0  0  0  0  0  0  0  0  0  0  0
   38.2200   30.8790   57.4920 C   0  0  0  0  0  0  0  0  0  0  0  0
   39.7780   37.8070   62.3620 F   0  0  0  0  0  0  0  0  0  0  0  0
   38.8360   26.8410   54.7500 C   0  0  0  0  0  0  0  0  0  0  0  0
   38.8120   37.2420   61.6930 C   0  0  0  0  0  0  0  0  0  0  0  0
   38.0590   30.7940   61.2850 O   0  0  0  0  0  0  0  0  0  0  0  0
   36.6670   32.5660   61.7590 O   0  0  0  0  0  0  0  0  0  0  0  0
   38.0790   35.1890   60.8330 C   0  0  0  0  0  0  0  0  0  0  0  0
   38.8480   35.8940   61.7530 C   0  0  0  0  0  0  0  0  0  0  0  0
   37.6670   33.2160   59.4500 C   0  0  0  0  0  0  0  0  0  0  0  0
   37.1060   37.2080   60.0770 C   0  0  0  0  0  0  0  0  0  0  0  0
   39.4120   28.1920   57.4720 O   0  0  0  0  0  0  0  0  0  0  0  0
   37.0750   35.8310   60.0460 C   0  0  0  0  0  0  0  0  0  0  0  0
   38.7930   28.5900   56.2360 C   0  0  0  0  0  0  0  0  0  0  0  0
   38.0470   30.7440   55.0860 C   0  0  0  0  0  0  0  0  0  0  0  0
   39.4550   33.0900   61.0830 O   0  0  0  0  0  0  0  0  0  0  0  0
   38.7730   31.1210   58.8210 O   0  0  0  0  0  0  0  0  0  0  0  0
  1 12  1  0
  1  9  1  0
  3  4  2  0
  4 16  1  0
  4 17  1  0
  5 24  1  0
  5 12  1  0
  6 15  1  0
  7 24  1  0
 10 18  1  0
 10 26  1  0
 11  1  1  0
 12  2  1  0
 12 27  1  0
 14  7  1  0
 14  8  1  0
 15 19  2  0
 15 13  1  0
 18 19  1  0
 20  9  1  0
 20 10  1  0
 20  4  1  0
 21  6  2  0
 23 21  1  0
 23 18  2  0
 24 22  1  0
 25 11  1  0
 25  5  1  0
M  END
$$$$

     RDKit          3D

 25 26  0  0  0  0  0  0  0  0999 V2000
   39.8510   29.8080   49.6180 C   0  0  0  0  0  0  0  0  0  0  0  0
   39.7610   28.5070   49.5630 C   0  0  0  0  0  0  0  0  0  0  0  0
   37.0690   31.5280   59.6970 C   0  0  0  0  0  0  0  0  0  0  0  0
   38.7010   28.9170   59.3100 O   0  0  0  0  0  0  0  0  0  0  0  0
   37.8450   32.0760   55.5430 O   0  0  0  0  0  0  0  0  0  0  0  0
   39.6580   24.7350   57.2590 O   0  0  0  0  0  0  0  0  0  0  0  0
   37.7270   30.8450   54.9650 C   0  0  0  0  0  0  0  0  0  0  0  0
   40.0090   31.0080   49.5620 N   0  0  0  0  0  0  0  0  0  0  0  0
   39.6730   28.7880   51.8720 C   0  0  0  0  0  0  0  0  0  0  0  0
   39.4090   27.8520   51.9270 C   0  0  0  0  0  0  0  0  0  0  0  0
   37.4920   31.9250   58.5500 O   0  0  0  0  0  0  0  0  0  0  0  0
   39.9120   30.2240   51.9140 C   0  0  0  0  0  0  0  0  0  0  0  0
   38.0790   30.9590   57.4710 C   0  0  0  0  0  0  0  0  0  0  0  0
   38.9320   25.3310   56.1850 C   0  0  0  0  0  0  0  0  0  0  0  0
   40.6350   26.9570   57.4070 C   0  0  0  0  0  0  0  0  0  0  0  0
   38.1400   29.7000   58.2150 C   0  0  0  0  0  0  0  0  0  0  0  0
   39.5320   30.4410   53.3590 C   0  0  0  0  0  0  0  0  0  0  0  0
   38.5850   29.5940   55.3930 C   0  0  0  0  0  0  0  0  0  0  0  0
   39.4540   27.6670   57.0280 N   0  0  0  0  0  0  0  0  0  0  0  0
   39.3230   29.2870   54.1650 O   0  0  0  0  0  0  0  0  0  0  0  0
   39.5780   29.0150   56.3830 C   0  0  0  0  0  0  0  0  0  0  0  0
   38.3670   26.7670   56.3670 C   0  0  0  0  0  0  0  0  0  0  0  0
   40.2680   25.7720   58.1640 C   0  0  0  0  0  0  0  0  0  0  0  0
   39.6360   27.6850   50.6050 C   0  0  0  0  0  0  0  0  0  0  0  0
   39.2310   30.1720   57.2630 C   0  0  0  0  0  0  0  0  0  0  0  0
  2  1  1  0
  2 24  2  3
  6 23  1  0
  7  5  1  0
  8  1  3  0
  9 12  1  0
  9 10  1  0
 11  3  1  0
 12 17  1  0
 13 16  1  0
 13 11  1  0
 14 22  1  0
 14  6  1  0
 15 23  1  0
 16  4  1  0
 17 20  1  0
 18  7  1  0
 19 15  1  0
 20 18  1  0
 21 18  1  0
 21 19  1  0
 22 19  1  0
 24 10  1  0
 25 21  1  0
 25 13  1  0
 25 16  1  0
M  END
$$$$

     RDKit          3D

 22 25  0  0  0  0  0  0  0  0999 V2000
   38.3220   32.4410   58.2820 C   0  0  0  0  0  0  0  0  0  0  0  0
   39.6830   28.0970   49.3690 C   0  0  0  0  0  0  0  0  0  0  0  0
   38.1690   30.4910   55.3170 C   0  0  0  0  0  0  0  0  0  0  0  0
   39.4460   27.3950   48.4380 F   0  0  0  0  0  0  0  0  0  0  0  0
   38.4050   31.0760   56.4420 N   0  0  0  0  0  0  0  0  0  0  0  0
   38.3810   30.1690   57.5810 C   0  0  0  0  0  0  0  0  0  0  0  0
   37.7390   30.9010   58.3740 C   0  0  0  0  0  0  0  0  0  0  0  0
   39.5250   29.8780   53.6730 O   0  0  0  0  0  0  0  0  0  0  0  0
   39.3480   27.1600   56.0750 O   0  0  0  0  0  0  0  0  0  0  0  0
   39.9490   29.3710   51.3860 N   0  0  0  0  0  0  0  0  0  0  0  0
   37.0380   27.0580   53.3120 O   0  0  0  0  0  0  0  0  0  0  0  0
   39.4460   27.7590   53.3300 C   0  0  0  0  0  0  0  0  0  0  0  0
   39.2410   29.4650   55.0500 C   0  0  0  0  0  0  0  0  0  0  0  0
   40.6790   30.3930   49.5100 C   0  0  0  0  0  0  0  0  0  0  0  0
   39.3050   27.3900   50.3710 N   0  0  0  0  0  0  0  0  0  0  0  0
   38.4010   32.5190   56.9640 C   0  0  0  0  0  0  0  0  0  0  0  0
   39.9990   30.4870   50.9140 C   0  0  0  0  0  0  0  0  0  0  0  0
   37.0690   30.0800   57.4720 C   0  0  0  0  0  0  0  0  0  0  0  0
   38.3200   27.7240   53.8920 C   0  0  0  0  0  0  0  0  0  0  0  0
   39.5000   28.9230   52.4950 C   0  0  0  0  0  0  0  0  0  0  0  0
   40.2660   29.4850   49.0830 C   0  0  0  0  0  0  0  0  0  0  0  0
   39.0440   27.8100   54.7840 C   0  0  0  0  0  0  0  0  0  0  0  0
  1  7  1  0
  2 15  1  0
  3  5  1  0
  4  2  1  0
  5 16  1  0
  5  6  1  0
  6 18  1  0
  6  7  1  0
  7 18  1  0
  8 13  1  0
 10 20  1  0
 11 19  1  0
 12 19  1  0
 12 22  1  0
 13  3  1  0
 14 17  1  0
 16  1  1  0
 17 10  1  0
 19 22  1  0
 20 12  1  0
 20  8  1  0
 21  2  2  3
 21 14  1  0
 22 13  1  0
 22  9  1  0
M  END
$$$$

     RDKit          3D

 36 38  0  0  0  0  0  0  0  0999 V2000
   38.2400   35.4480   60.6760 C   0  0  0  0  0  0  0  0  0  0  0  0
   38.3370   36.6910   61.2120 C   0  0  0  0  0  0  0  0  0  0  0  0
   40.7460   30.0110   49.0460 C   0  0  0  0  0  0  0  0  0  0  0  0
   38.0710   31.7450   56.4850 O   0  0  0  0  0  0  0  0  0  0  0  0
   39.2780   36.8440   62.3360 C   0  0  0  0  0  0  0  0  0  0  0  0
   39.0780   34.5200   61.0500 N   0  0  0  0  0  0  0  0  0  0  0  0
   39.1630   33.1660   61.3700 C   0  0  0  0  0  0  0  0  0  0  0  0
   38.6210   29.6200   57.6670 C   0  0  0  0  0  0  0  0  0  0  0  0
   37.2180   35.2900   59.6550 C   0  0  0  0  0  0  0  0  0  0  0  0
   39.1680   30.5660   53.8600 C   0  0  0  0  0  0  0  0  0  0  0  0
   38.6870   28.4930   52.6060 C   0  0  0  0  0  0  0  0  0  0  0  0
   38.4320   32.2790   60.4090 C   0  0  0  0  0  0  0  0  0  0  0  0
   40.5730   32.6990   61.5840 C   0  0  0  0  0  0  0  0  0  0  0  0
   38.8730   27.7420   51.4540 C   0  0  0  0  0  0  0  0  0  0  0  0
   39.0750   26.4010   56.0860 C   0  0  0  0  0  0  0  0  0  0  0  0
   36.7420   37.4820   59.7310 C   0  0  0  0  0  0  0  0  0  0  0  0
   39.9820   30.3130   51.4860 C   0  0  0  0  0  0  0  0  0  0  0  0
   40.9700   31.6470   61.3870 O   0  0  0  0  0  0  0  0  0  0  0  0
   37.9960   30.3570   56.2290 P   0  0  0  0  0  0  0  0  0  0  0  0
   36.5000   36.3360   59.1920 N   0  0  0  0  0  0  0  0  0  0  0  0
   38.2060   24.5100   58.0060 C   0  0  0  0  0  0  0  0  0  0  0  0
   38.2860   25.2940   55.7490 C   0  0  0  0  0  0  0  0  0  0  0  0
   36.6310   29.8930   55.7510 O   0  0  0  0  0  0  0  0  0  0  0  0
   37.9250   24.2930   56.6220 C   0  0  0  0  0  0  0  0  0  0  0  0
   37.6970   37.8120   60.7400 C   0  0  0  0  0  0  0  0  0  0  0  0
   39.4910   28.2280   50.2890 C   0  0  0  0  0  0  0  0  0  0  0  0
   39.3020   29.7680   52.5820 C   0  0  0  0  0  0  0  0  0  0  0  0
   40.0750   29.4540   50.3190 C   0  0  0  0  0  0  0  0  0  0  0  0
   38.7850   25.7450   58.4820 C   0  0  0  0  0  0  0  0  0  0  0  0
   38.3470   28.2630   58.1940 C   0  0  0  0  0  0  0  0  0  0  0  0
   38.0020   30.5640   58.7930 C   0  0  0  0  0  0  0  0  0  0  0  0
   41.3810   33.6210   62.3070 O   0  0  0  0  0  0  0  0  0  0  0  0
   38.9720   26.8880   57.5270 C   0  0  0  0  0  0  0  0  0  0  0  0
   38.9110   29.8850   55.0450 O   0  0  0  0  0  0  0  0  0  0  0  0
   39.9690   26.8740   54.9840 C   0  0  0  0  0  0  0  0  0  0  0  0
   38.9940   31.2850   59.6690 O   0  0  0  0  0  0  0  0  0  0  0  0
  1  6  1  0
  1  2  1  0
  2  5  1  0
  3 28  1  0
  6  7  1  0
  7 12  1  0
  7 13  1  0
  8 30  1  0
  8 31  1  0
  9  1  2  0
 10 34  1  0
 13 32  1  0
 14 11  2  0
 15 33  1  0
 16 25  1  0
 17 27  2  0
 18 13  2  0
 19 23  2  0
 19  4  1  0
 19  8  1  0
 20  9  1  0
 20 16  2  0
 21 29  1  0
 22 15  2  0
 22 24  1  0
 24 21  2  0
 25  2  2  0
 26 28  2  0
 26 14  1  0
 27 11  1  0
 27 10  1  0
 28 17  1  0
 31 36  1  0
 33 30  1  0
 33 29  2  0
 34 19  1  0
 35 15  1  0
 36 12  1  0
M  END
$$$$

     RDKit          3D

 38 41  0  0  0  0  0  0  0  0999 V2000
   39.8940   28.0700   49.7800 C   0  0  0  0  0  0  0  0  0  0  0  0
   39.0640   33.0570   61.8650 C   0  0  0  0  0  0  0  0  0  0  0  0
   39.6720   27.9980   51.1630 C   0  0  0  0  0  0  0  0  0  0  0  0
   37.6390   34.9050   61.0080 N   0  0  0  0  0  0  0  0  0  0  0  0
   38.8110   30.4330   55.2340 C   0  0  0  0  0  0  0  0  0  0  0  0
   38.3170   30.8330   61.2210 N   0  0  0  0  0  0  0  0  0  0  0  0
   37.5260   30.9860   58.6780 C   0  0  0  0  0  0  0  0  0  0  0  0
   37.0410   37.0570   60.1750 C   0  0  0  0  0  0  0  0  0  0  0  0
   37.4780   37.3490   63.1180 O   0  0  0  0  0  0  0  0  0  0  0  0
   39.0170   36.4370   61.4740 N   0  0  0  0  0  0  0  0  0  0  0  0
   38.7200   37.5120   62.4060 C   0  0  0  0  0  0  0  0  0  0  0  0
   40.5120   28.4880   56.3480 O   0  0  0  0  0  0  0  0  0  0  0  0
   39.1460   30.6300   56.7560 C   0  0  0  0  0  0  0  0  0  0  0  0
   40.0840   29.3000   49.1630 C   0  0  0  0  0  0  0  0  0  0  0  0
   39.1720   27.1000   55.0560 C   0  0  0  0  0  0  0  0  0  0  0  0
   38.1620   32.6580   55.5920 C   0  0  0  0  0  0  0  0  0  0  0  0
   38.9690   31.6350   62.2270 C   0  0  0  0  0  0  0  0  0  0  0  0
   37.6230   32.4030   56.9060 N   0  0  0  0  0  0  0  0  0  0  0  0
   36.3780   30.6110   58.8740 O   0  0  0  0  0  0  0  0  0  0  0  0
   39.8810   30.3500   51.3730 C   0  0  0  0  0  0  0  0  0  0  0  0
   38.6760   33.6870   60.8730 C   0  0  0  0  0  0  0  0  0  0  0  0
   37.6150   32.8260   60.0420 C   0  0  0  0  0  0  0  0  0  0  0  0
   37.1810   25.8200   55.1420 C   0  0  0  0  0  0  0  0  0  0  0  0
   40.1140   30.4680   49.9580 C   0  0  0  0  0  0  0  0  0  0  0  0
   37.7930   27.0490   54.7830 C   0  0  0  0  0  0  0  0  0  0  0  0
   39.4020   29.2750   54.6630 N   0  0  0  0  0  0  0  0  0  0  0  0
   37.8030   36.0310   60.8630 C   0  0  0  0  0  0  0  0  0  0  0  0
   40.0600   25.9950   55.0520 C   0  0  0  0  0  0  0  0  0  0  0  0
   39.7880   31.4470   52.0960 F   0  0  0  0  0  0  0  0  0  0  0  0
   38.0000   24.7280   55.5120 C   0  0  0  0  0  0  0  0  0  0  0  0
   38.2890   31.6540   59.9370 C   0  0  0  0  0  0  0  0  0  0  0  0
   39.6750   29.0970   51.9930 C   0  0  0  0  0  0  0  0  0  0  0  0
   38.1160   31.3780   57.4620 N   0  0  0  0  0  0  0  0  0  0  0  0
   39.4330   24.8170   55.2860 C   0  0  0  0  0  0  0  0  0  0  0  0
   39.7360   28.3000   55.4610 C   0  0  0  0  0  0  0  0  0  0  0  0
   38.1020   31.4850   54.5760 C   0  0  0  0  0  0  0  0  0  0  0  0
   39.6520   38.2210   62.6600 O   0  0  0  0  0  0  0  0  0  0  0  0
   39.3950   29.0680   53.3620 N   0  0  0  0  0  0  0  0  0  0  0  0
  1  3  1  0
  2 17  1  0
  3 32  2  0
  5 26  1  0
  5 13  1  0
  6 17  1  0
  7 19  2  0
 10 11  1  0
 11 37  2  0
 11  9  1  0
 13 33  1  0
 14  1  2  0
 14 24  1  0
 15 35  1  0
 16 18  1  0
 18 33  1  0
 20 32  1  0
 20 29  1  0
 21  4  1  0
 21  2  1  0
 22 21  1  0
 23 30  2  0
 24 20  2  0
 25 15  1  0
 25 23  1  0
 26 35  1  0
 27  8  1  0
 27  4  1  0
 27 10  1  0
 28 15  1  0
 28 34  1  0
 31  7  1  0
 31 22  1  0
 31  6  1  0
 32 38  1  0
 33  7  1  0
 34 30  1  0
 35 12  2  0
 36  5  1  0
 36 16  1  0
 38 26  1  0
M  END
$$$$

     RDKit          3D

 34 37  0  0  0  0  0  0  0  0999 V2000
   39.7990   36.2140   62.0790 C   0  0  0  0  0  0  0  0  0  0  0  0
   39.8440   27.1010   56.0560 C   0  0  0  0  0  0  0  0  0  0  0  0
   40.1450   35.2910   62.8290 O   0  0  0  0  0  0  0  0  0  0  0  0
   38.5730   33.4690   56.1270 C   0  0  0  0  0  0  0  0  0  0  0  0
   38.0810   32.6400   59.6880 N   0  0  0  0  0  0  0  0  0  0  0  0
   39.0220   26.1060   55.1490 C   0  0  0  0  0  0  0  0  0  0  0  0
   37.9110   37.2910   60.8100 C   0  0  0  0  0  0  0  0  0  0  0  0
   36.2260   36.0730   59.7720 C   0  0  0  0  0  0  0  0  0  0  0  0
   36.9240   28.1130   53.6450 C   0  0  0  0  0  0  0  0  0  0  0  0
   39.0140   26.6400   53.7040 C   0  0  0  0  0  0  0  0  0  0  0  0
   38.5160   28.2000   53.4580 C   0  0  0  0  0  0  0  0  0  0  0  0
   35.9670   33.5510   61.1410 C   0  0  0  0  0  0  0  0  0  0  0  0
   39.2530   28.0400   51.1360 O   0  0  0  0  0  0  0  0  0  0  0  0
   39.1790   33.0830   61.6110 O   0  0  0  0  0  0  0  0  0  0  0  0
   38.8740   31.0430   56.2320 N   0  0  0  0  0  0  0  0  0  0  0  0
   37.9850   34.9020   60.7880 C   0  0  0  0  0  0  0  0  0  0  0  0
   40.4510   37.2020   62.0050 O   0  0  0  0  0  0  0  0  0  0  0  0
   39.6780   30.1460   51.9560 C   0  0  0  0  0  0  0  0  0  0  0  0
   38.5920   36.1080   61.2320 C   0  0  0  0  0  0  0  0  0  0  0  0
   38.7120   29.8140   54.0470 C   0  0  0  0  0  0  0  0  0  0  0  0
   39.3060   29.7230   55.5020 C   0  0  0  0  0  0  0  0  0  0  0  0
   38.4880   33.4760   60.7080 C   0  0  0  0  0  0  0  0  0  0  0  0
   38.5490   31.1170   57.6010 C   0  0  0  0  0  0  0  0  0  0  0  0
   36.8720   37.2510   59.9830 N   0  0  0  0  0  0  0  0  0  0  0  0
   40.0540   30.0340   50.5690 C   0  0  0  0  0  0  0  0  0  0  0  0
   38.8510   32.2070   55.4710 C   0  0  0  0  0  0  0  0  0  0  0  0
   38.3180   38.5030   61.3560 N   0  0  0  0  0  0  0  0  0  0  0  0
   39.5460   28.7530   52.3650 N   0  0  0  0  0  0  0  0  0  0  0  0
   39.0630   28.4350   56.2310 C   0  0  0  0  0  0  0  0  0  0  0  0
   38.3700   32.4930   58.2890 C   0  0  0  0  0  0  0  0  0  0  0  0
   39.8870   28.2410   48.7760 C   0  0  0  0  0  0  0  0  0  0  0  0
   38.4160   33.4550   57.4540 N   0  0  0  0  0  0  0  0  0  0  0  0
   39.7430   28.7730   50.1500 C   0  0  0  0  0  0  0  0  0  0  0  0
   36.6440   34.8980   60.4730 C   0  0  0  0  0  0  0  0  0  0  0  0
  1  3  1  0
  2 29  1  0
  4 32  1  0
  5 22  1  0
  6  2  1  0
  7 19  1  0
  7 27  1  0
  8 24  1  0
  8 34  2  0
 10  6  1  0
 11  9  1  0
 11 10  1  0
 11 20  1  0
 13 28  1  0
 15 23  1  0
 16 19  2  0
 17  1  2  0
 19  1  1  0
 21 20  1  0
 21 29  1  0
 21 15  1  0
 22 16  1  0
 22 14  2  0
 23 30  1  0
 24  7  2  0
 25 18  1  0
 26  4  2  0
 26 15  1  0
 28 18  1  0
 28 11  1  0
 30  5  1  0
 32 30  2  0
 33 31  1  0
 33 25  1  0
 33 13  1  0
 34 16  1  0
 34 12  1  0
M  END
$$$$

     RDKit          3D

 34 38  0  0  0  0  0  0  0  0999 V2000
   38.4400   32.2010   55.7150 C   0  0  0  0  0  0  0  0  0  0  0  0
   39.3880   27.2400   56.6250 C   0  0  0  0  0  0  0  0  0  0  0  0
   39.1150   25.9490   58.7130 O   0  0  0  0  0  0  0  0  0  0  0  0
   40.1710   29.3640   49.7740 C   0  0  0  0  0  0  0  0  0  0  0  0
   37.4400   34.2160   58.3870 N   0  0  0  0  0  0  0  0  0  0  0  0
   38.9110   28.5150   56.8430 C   0  0  0  0  0  0  0  0  0  0  0  0
   39.3380   27.8130   54.0520 C   0  0  0  0  0  0  0  0  0  0  0  0
   38.9110   29.1460   54.5660 C   0  0  0  0  0  0  0  0  0  0  0  0
   38.5830   33.2190   57.8280 C   0  0  0  0  0  0  0  0  0  0  0  0
   39.3380   25.9880   57.3980 C   0  0  0  0  0  0  0  0  0  0  0  0
   36.9930   37.2620   59.0470 O   0  0  0  0  0  0  0  0  0  0  0  0
   37.5730   32.4610   54.5930 O   0  0  0  0  0  0  0  0  0  0  0  0
   36.0700   34.7150   61.2520 C   0  0  0  0  0  0  0  0  0  0  0  0
   36.8870   35.2010   60.2140 C   0  0  0  0  0  0  0  0  0  0  0  0
   37.4680   37.2050   61.6750 C   0  0  0  0  0  0  0  0  0  0  0  0
   38.6580   30.6860   57.6940 C   0  0  0  0  0  0  0  0  0  0  0  0
   39.6560   30.5990   52.9900 N   0  0  0  0  0  0  0  0  0  0  0  0
   39.6490   28.4820   51.6040 C   0  0  0  0  0  0  0  0  0  0  0  0
   37.3770   36.7660   60.2040 C   0  0  0  0  0  0  0  0  0  0  0  0
   39.8260   29.8670   51.7310 C   0  0  0  0  0  0  0  0  0  0  0  0
   38.9300   29.4670   55.8180 C   0  0  0  0  0  0  0  0  0  0  0  0
   39.8620   24.8580   54.1240 O   0  0  0  0  0  0  0  0  0  0  0  0
   38.5170   32.0690   58.5220 C   0  0  0  0  0  0  0  0  0  0  0  0
   38.5300   30.2730   53.8800 C   0  0  0  0  0  0  0  0  0  0  0  0
   39.3930   26.9110   55.2660 C   0  0  0  0  0  0  0  0  0  0  0  0
   38.4100   33.3360   56.4280 C   0  0  0  0  0  0  0  0  0  0  0  0
   40.1270   30.3820   50.5490 C   0  0  0  0  0  0  0  0  0  0  0  0
   39.4410   24.9450   56.5090 N   0  0  0  0  0  0  0  0  0  0  0  0
   38.4670   36.4000   62.0980 O   0  0  0  0  0  0  0  0  0  0  0  0
   38.8850   30.9130   56.3250 C   0  0  0  0  0  0  0  0  0  0  0  0
   39.5830   25.4310   55.1810 C   0  0  0  0  0  0  0  0  0  0  0  0
   39.8320   28.1580   50.2990 O   0  0  0  0  0  0  0  0  0  0  0  0
   39.3110   27.5060   52.6680 C   0  0  0  0  0  0  0  0  0  0  0  0
   37.9110   34.5300   59.6820 O   0  0  0  0  0  0  0  0  0  0  0  0
  1 12  1  0
  1 30  1  0
  1 26  1  0
  2  6  1  0
  2 10  1  0
  4 32  1  0
  4 27  2  0
  5 34  1  0
  7  8  2  0
  7 25  1  0
  8 21  1  0
  9  5  1  0
  9 23  1  0
 10  3  2  0
 14 13  1  0
 15 29  1  0
 16 23  1  0
 17 24  1  0
 18 20  2  0
 18 33  1  0
 19 11  1  0
 19 14  1  0
 19 15  1  0
 20 17  1  0
 21  6  2  0
 22 31  2  0
 24  8  1  0
 25  2  2  0
 26  9  1  0
 27 20  1  0
 28 10  1  0
 30 21  1  0
 30 16  1  0
 31 25  1  0
 31 28  1  0
 32 18  1  0
 33  7  1  0
 34 14  1  0
M  END
$$$$

     RDKit          3D

 16 15  0  0  0  0  0  0  0  0999 V2000
   40.1350   30.3210   51.0390 Cl  0  0  0  0  0  0  0  0  0  0  0  0
   39.0540   30.5630   55.0900 C   0  0  0  0  0  0  0  0  0  0  0  0
   38.4970   31.9800   57.1910 C   0  0  0  0  0  0  0  0  0  0  0  0
   37.7120   28.9840   53.3820 O   0  0  0  0  0  0  0  0  0  0  0  0
   39.6290   30.4270   53.6610 C   0  0  0  0  0  0  0  0  0  0  0  0
   37.8980   37.4140   61.0070 C   0  0  0  0  0  0  0  0  0  0  0  0
   39.5110   28.9490   51.6090 C   0  0  0  0  0  0  0  0  0  0  0  0
   39.3430   27.7540   50.7940 C   0  0  0  0  0  0  0  0  0  0  0  0
   38.1650   33.5130   59.2380 C   0  0  0  0  0  0  0  0  0  0  0  0
   39.1430   29.0720   53.0420 C   0  0  0  0  0  0  0  0  0  0  0  0
   39.9340   36.3430   61.7260 C   0  0  0  0  0  0  0  0  0  0  0  0
   38.4000   26.9580   51.1870 O   0  0  0  0  0  0  0  0  0  0  0  0
   38.6180   33.3760   57.7640 C   0  0  0  0  0  0  0  0  0  0  0  0
   38.5820   35.7200   60.8700 C   0  0  0  0  0  0  0  0  0  0  0  0
   39.1340   34.2250   60.2260 C   0  0  0  0  0  0  0  0  0  0  0  0
   39.0290   32.0000   55.7350 C   0  0  0  0  0  0  0  0  0  0  0  0
  2 16  1  0
  3 13  1  0
  5  2  1  0
  7  1  1  0
  7 10  1  0
  8 12  1  0
  8  7  1  0
  9 15  1  0
 10  4  1  0
 10  5  1  0
 13  9  1  0
 14  6  1  0
 14 11  1  0
 15 14  1  0
 16  3  1  0
M  END
$$$$

     RDKit          3D

 33 37  0  0  0  0  0  0  0  0999 V2000
   39.5260   28.8000   57.6910 O   0  0  0  0  0  0  0  0  0  0  0  0
   36.1610   36.2850   59.0440 O   0  0  0  0  0  0  0  0  0  0  0  0
   38.5340   34.0580   60.8010 C   0  0  0  0  0  0  0  0  0  0  0  0
   38.2020   32.6570   61.1940 C   0  0  0  0  0  0  0  0  0  0  0  0
   39.8440   30.7870   50.9540 C   0  0  0  0  0  0  0  0  0  0  0  0
   39.7770   26.4400   53.2410 C   0  0  0  0  0  0  0  0  0  0  0  0
   40.8930   34.2020   61.5940 C   0  0  0  0  0  0  0  0  0  0  0  0
   39.6610   26.3640   55.5940 C   0  0  0  0  0  0  0  0  0  0  0  0
   39.0420   28.9220   56.5800 C   0  0  0  0  0  0  0  0  0  0  0  0
   39.6160   30.0030   52.1420 C   0  0  0  0  0  0  0  0  0  0  0  0
   39.9800   25.7850   54.4120 C   0  0  0  0  0  0  0  0  0  0  0  0
   39.5500   36.0800   61.7290 C   0  0  0  0  0  0  0  0  0  0  0  0
   37.0640   32.1930   60.3220 C   0  0  0  0  0  0  0  0  0  0  0  0
   40.0340   25.7010   56.7550 N   0  0  0  0  0  0  0  0  0  0  0  0
   38.3500   31.4280   57.8660 C   0  0  0  0  0  0  0  0  0  0  0  0
   38.7810   28.2590   54.3860 C   0  0  0  0  0  0  0  0  0  0  0  0
   37.9350   31.3080   56.4190 C   0  0  0  0  0  0  0  0  0  0  0  0
   37.6100   33.7700   58.5890 C   0  0  0  0  0  0  0  0  0  0  0  0
   39.7310   28.7520   49.6540 C   0  0  0  0  0  0  0  0  0  0  0  0
   37.7570   29.5490   54.3820 S   0  0  0  0  0  0  0  0  0  0  0  0
   38.3830   30.0170   55.9070 C   0  0  0  0  0  0  0  0  0  0  0  0
   39.4900   27.9970   50.8040 C   0  0  0  0  0  0  0  0  0  0  0  0
   39.3600   27.7550   53.2270 C   0  0  0  0  0  0  0  0  0  0  0  0
   39.4610   28.6080   52.0670 C   0  0  0  0  0  0  0  0  0  0  0  0
   39.8440   30.0930   49.7260 C   0  0  0  0  0  0  0  0  0  0  0  0
   39.1290   27.6320   55.5700 C   0  0  0  0  0  0  0  0  0  0  0  0
   37.5950   36.9770   60.6320 C   0  0  0  0  0  0  0  0  0  0  0  0
   37.5390   32.3030   58.8860 N   0  0  0  0  0  0  0  0  0  0  0  0
   37.1600   35.9160   59.8780 C   0  0  0  0  0  0  0  0  0  0  0  0
   39.6090   34.7820   61.3920 C   0  0  0  0  0  0  0  0  0  0  0  0
   40.0590   30.8520   48.5500 F   0  0  0  0  0  0  0  0  0  0  0  0
   38.5570   37.0130   61.4980 C   0  0  0  0  0  0  0  0  0  0  0  0
   37.6570   34.6500   59.8940 C   0  0  0  0  0  0  0  0  0  0  0  0
  2 29  1  0
  3  4  1  0
  3 30  1  0
  5 10  1  0
  6 11  1  0
  8 14  1  0
  9  1  2  0
 11  8  2  0
 13  4  1  0
 15 28  1  0
 16 26  2  0
 17 15  1  0
 18 28  1  0
 18 33  1  0
 19 25  1  0
 19 22  2  0
 20 16  1  0
 20 21  1  0
 21 17  1  0
 21  9  1  0
 22 24  1  0
 23  6  2  0
 23 16  1  0
 24 10  2  0
 24 23  1  0
 25  5  2  0
 26  8  1  0
 26  9  1  0
 27 32  1  0
 28 13  1  0
 29 33  1  0
 29 27  2  0
 30  7  1  0
 30 12  1  0
 31 25  1  0
 32 12  2  0
 33  3  2  0
M  END
$$$$

     RDKit          3D

 33 35  0  0  0  0  0  0  0  0999 V2000
   39.3360   28.1880   56.4290 C   0  0  0  0  0  0  0  0  0  0  0  0
   38.1840   31.5570   57.7020 C   0  0  0  0  0  0  0  0  0  0  0  0
   36.0130   36.2950   59.4750 C   0  0  0  0  0  0  0  0  0  0  0  0
   41.0730   27.7060   58.1030 O   0  0  0  0  0  0  0  0  0  0  0  0
   40.3740   27.3460   57.0820 C   0  0  0  0  0  0  0  0  0  0  0  0
   39.2980   29.5600   56.7600 N   0  0  0  0  0  0  0  0  0  0  0  0
   37.6150   27.8000   54.6200 C   0  0  0  0  0  0  0  0  0  0  0  0
   38.3080   36.2330   60.9420 N   0  0  0  0  0  0  0  0  0  0  0  0
   40.5070   29.4920   49.6140 C   0  0  0  0  0  0  0  0  0  0  0  0
   38.5480   30.1290   57.8730 C   0  0  0  0  0  0  0  0  0  0  0  0
   38.3460   31.2790   54.6300 O   0  0  0  0  0  0  0  0  0  0  0  0
   37.1930   34.3880   59.6210 C   0  0  0  0  0  0  0  0  0  0  0  0
   39.6120   27.7030   50.8770 C   0  0  0  0  0  0  0  0  0  0  0  0
   38.0440   33.6170   56.2670 O   0  0  0  0  0  0  0  0  0  0  0  0
   39.7350   29.8490   51.8960 C   0  0  0  0  0  0  0  0  0  0  0  0
   39.4460   34.2880   60.2990 C   0  0  0  0  0  0  0  0  0  0  0  0
   40.1560   28.1320   49.6730 C   0  0  0  0  0  0  0  0  0  0  0  0
   39.4050   32.9930   60.1550 C   0  0  0  0  0  0  0  0  0  0  0  0
   36.3200   37.4070   60.0170 C   0  0  0  0  0  0  0  0  0  0  0  0
   37.3040   32.9810   59.3580 C   0  0  0  0  0  0  0  0  0  0  0  0
   38.7890   27.1890   53.9450 C   0  0  0  0  0  0  0  0  0  0  0  0
   38.7080   27.7300   52.7410 O   0  0  0  0  0  0  0  0  0  0  0  0
   37.8850   27.6740   56.1400 C   0  0  0  0  0  0  0  0  0  0  0  0
   35.8940   34.9770   59.1910 C   0  0  0  0  0  0  0  0  0  0  0  0
   40.2430   30.3260   50.7000 C   0  0  0  0  0  0  0  0  0  0  0  0
   37.8800   38.4460   61.6580 N   0  0  0  0  0  0  0  0  0  0  0  0
   39.3470   31.6680   55.5730 C   0  0  0  0  0  0  0  0  0  0  0  0
   39.3300   28.4980   51.9260 C   0  0  0  0  0  0  0  0  0  0  0  0
   37.4840   37.4620   60.9160 C   0  0  0  0  0  0  0  0  0  0  0  0
   38.4820   32.3440   59.0910 N   0  0  0  0  0  0  0  0  0  0  0  0
   38.8910   32.5230   56.7230 C   0  0  0  0  0  0  0  0  0  0  0  0
   38.2100   35.0440   60.1900 C   0  0  0  0  0  0  0  0  0  0  0  0
   40.7920   26.2350   56.5370 O   0  0  0  0  0  0  0  0  0  0  0  0
  1 23  1  0
  1  6  1  0
  1  5  1  0
  2 10  1  0
  2 30  1  0
  3 19  1  0
  5  4  1  0
  6 10  1  0
  7 23  1  0
  9 17  2  0
  9 25  1  0
 11 27  1  0
 12 32  1  0
 13 28  2  0
 15 28  1  0
 17 13  1  0
 18 16  1  0
 19 29  2  0
 20 12  2  0
 21  7  1  0
 22 21  1  0
 24  3  1  0
 24 12  1  0
 25 15  2  0
 27 31  1  0
 28 22  1  0
 29  8  1  0
 29 26  1  0
 30 20  1  0
 30 18  1  0
 31 14  1  0
 31  2  1  0
 32 16  2  0
 32  8  1  0
 33  5  2  0
M  END
$$$$

     RDKit          3D

 17 18  0  0  0  0  0  0  0  0999 V2000
   38.2830   33.0110   58.5030 C   0  0  0  0  0  0  0  0  0  0  0  0
   38.3500   32.6050   57.1710 N   0  0  0  0  0  0  0  0  0  0  0  0
   37.6440   35.1280   59.8820 C   0  0  0  0  0  0  0  0  0  0  0  0
   38.7400   32.1540   59.4940 C   0  0  0  0  0  0  0  0  0  0  0  0
   38.3740   31.2200   56.7390 C   0  0  0  0  0  0  0  0  0  0  0  0
   38.0810   36.8940   62.6780 C   0  0  0  0  0  0  0  0  0  0  0  0
   38.3480   34.9880   60.9610 C   0  0  0  0  0  0  0  0  0  0  0  0
   37.2300   36.4980   59.8980 C   0  0  0  0  0  0  0  0  0  0  0  0
   37.6470   34.3060   58.8120 C   0  0  0  0  0  0  0  0  0  0  0  0
   37.7900   30.1510   56.9710 C   0  0  0  0  0  0  0  0  0  0  0  0
   36.4960   37.2080   60.8740 N   0  0  0  0  0  0  0  0  0  0  0  0
   39.0090   36.4070   61.6750 C   0  0  0  0  0  0  0  0  0  0  0  0
   38.8400   33.7170   61.4520 C   0  0  0  0  0  0  0  0  0  0  0  0
   37.2960   37.2070   59.0930 O   0  0  0  0  0  0  0  0  0  0  0  0
   39.0070   32.5990   60.7730 C   0  0  0  0  0  0  0  0  0  0  0  0
   36.8510   37.6530   62.0930 C   0  0  0  0  0  0  0  0  0  0  0  0
   38.4260   33.3930   55.9530 C   0  0  0  0  0  0  0  0  0  0  0  0
  1  9  2  0
  1  4  1  0
  2  1  1  0
  3  8  1  0
  3  7  2  0
  4 15  1  0
  5 10  2  0
  5  2  1  0
  7 13  1  0
  7 12  1  0
  8 11  1  0
  9  3  1  0
 11 16  1  0
 12  6  1  0
 14  8  2  0
 15 13  2  0
 16  6  1  0
 17  2  1  0
M  END
$$$$

     RDKit          3D

 14 13  0  0  0  0  0  0  0  0999 V2000
   38.3070   28.6410   56.2330 S   0  0  0  0  0  0  0  0  0  0  0  0
   39.2160   30.1610   55.2560 C   0  0  0  0  0  0  0  0  0  0  0  0
   40.0620   25.7680   55.5050 C   0  0  0  0  0  0  0  0  0  0  0  0
   38.9000   31.2440   56.4540 C   0  0  0  0  0  0  0  0  0  0  0  0
   38.6150   27.5810   52.7050 C   0  0  0  0  0  0  0  0  0  0  0  0
   38.4180   32.5320   55.8380 C   0  0  0  0  0  0  0  0  0  0  0  0
   36.5140   37.4750   56.9770 N   0  0  0  0  0  0  0  0  0  0  0  0
   39.1990   26.7050   54.8360 C   0  0  0  0  0  0  0  0  0  0  0  0
   37.6980   35.4400   57.8620 C   0  0  0  0  0  0  0  0  0  0  0  0
   37.2060   36.6970   58.1710 C   0  0  0  0  0  0  0  0  0  0  0  0
   39.4390   26.7980   53.4810 O   0  0  0  0  0  0  0  0  0  0  0  0
   38.7410   33.6720   56.8630 C   0  0  0  0  0  0  0  0  0  0  0  0
   37.4850   34.4770   56.9930 N   0  0  0  0  0  0  0  0  0  0  0  0
   37.9480   27.1430   55.3790 C   0  0  0  0  0  0  0  0  0  0  0  0
  2  1  1  0
  2  4  1  0
  5 11  1  0
  6  4  1  0
  6 12  1  0
  7 10  1  0
  8 14  1  0
  8  3  1  0
  9 10  1  0
 11  8  1  0
 12 13  1  0
 13  9  1  0
 14  1  1  0
M  END
$$$$

     RDKit          3D

 35 37  0  0  0  0  0  0  0  0999 V2000
   38.7300   27.4350   52.4890 C   0  0  0  0  0  0  0  0  0  0  0  0
   40.0040   29.3860   48.6920 O   0  0  0  0  0  0  0  0  0  0  0  0
   39.2080   27.4450   50.1920 O   0  0  0  0  0  0  0  0  0  0  0  0
   41.4090   26.5630   58.0940 O   0  0  0  0  0  0  0  0  0  0  0  0
   39.1240   27.9910   51.2600 C   0  0  0  0  0  0  0  0  0  0  0  0
   39.7170   35.3940   61.2110 C   0  0  0  0  0  0  0  0  0  0  0  0
   37.7450   32.9400   57.9270 N   0  0  0  0  0  0  0  0  0  0  0  0
   38.5740   30.1850   55.2440 C   0  0  0  0  0  0  0  0  0  0  0  0
   37.2310   33.5890   58.8660 C   0  0  0  0  0  0  0  0  0  0  0  0
   38.9430   31.4800   54.9420 C   0  0  0  0  0  0  0  0  0  0  0  0
   39.8200   30.0460   50.0420 C   0  0  0  0  0  0  0  0  0  0  0  0
   39.3180   30.1120   52.5240 C   0  0  0  0  0  0  0  0  0  0  0  0
   38.8500   32.8440   56.9920 C   0  0  0  0  0  0  0  0  0  0  0  0
   40.1230   26.8460   58.0970 C   0  0  0  0  0  0  0  0  0  0  0  0
   37.5580   26.4700   56.3590 O   0  0  0  0  0  0  0  0  0  0  0  0
   39.6570   27.4350   59.1310 O   0  0  0  0  0  0  0  0  0  0  0  0
   37.2610   35.6420   60.1980 C   0  0  0  0  0  0  0  0  0  0  0  0
   40.0500   28.5130   56.8220 O   0  0  0  0  0  0  0  0  0  0  0  0
   39.8850   31.2790   50.0470 O   0  0  0  0  0  0  0  0  0  0  0  0
   37.9640   34.4910   59.8270 C   0  0  0  0  0  0  0  0  0  0  0  0
   39.2570   34.3690   60.3330 C   0  0  0  0  0  0  0  0  0  0  0  0
   37.0460   37.5190   61.6590 C   0  0  0  0  0  0  0  0  0  0  0  0
   38.2850   32.6460   55.5610 C   0  0  0  0  0  0  0  0  0  0  0  0
   38.8590   29.4250   53.6820 C   0  0  0  0  0  0  0  0  0  0  0  0
   37.7490   36.3950   61.1150 C   0  0  0  0  0  0  0  0  0  0  0  0
   38.6830   26.9740   56.7330 C   0  0  0  0  0  0  0  0  0  0  0  0
   39.1950   26.1820   57.4610 C   0  0  0  0  0  0  0  0  0  0  0  0
   36.5790   38.2320   60.8210 O   0  0  0  0  0  0  0  0  0  0  0  0
   38.7160   28.1090   53.6890 C   0  0  0  0  0  0  0  0  0  0  0  0
   39.5400   29.3840   51.2910 C   0  0  0  0  0  0  0  0  0  0  0  0
   37.5260   30.0290   56.7380 C   0  0  0  0  0  0  0  0  0  0  0  0
   36.3380   37.3540   62.9810 C   0  0  0  0  0  0  0  0  0  0  0  0
   38.8010   36.4300   61.5920 C   0  0  0  0  0  0  0  0  0  0  0  0
   39.5450   27.8030   55.9710 C   0  0  0  0  0  0  0  0  0  0  0  0
   39.6090   29.1390   56.0280 C   0  0  0  0  0  0  0  0  0  0  0  0
  1 29  1  0
  2 11  2  0
  3  5  2  0
  4 14  2  0
  5 30  1  0
  5  1  1  0
  6 33  1  0
  7  9  1  0
  8 31  1  0
  9 20  1  0
 10  8  1  0
 10 23  1  0
 11 19  1  0
 11 30  1  0
 12 24  1  0
 13  7  1  0
 14 16  1  0
 17 25  1  0
 20 17  2  0
 20 21  1  0
 21  6  2  0
 22 32  1  0
 23 13  1  0
 24 29  2  0
 24  8  1  0
 25 33  2  0
 25 22  1  0
 26 15  1  0
 26 27  1  0
 27 14  1  0
 28 22  2  0
 30 12  2  0
 34 35  1  0
 34 26  1  0
 34 18  1  0
 35  8  1  0
 35 18  1  0
M  END
$$$$

     RDKit          3D

 18 21  0  0  0  0  0  0  0  0999 V2000
   38.2860   25.3700   54.7610 O   0  0  0  0  0  0  0  0  0  0  0  0
   39.9480   28.4380   56.5110 C   0  0  0  0  0  0  0  0  0  0  0  0
   39.4360   30.9370   48.7900 C   0  0  0  0  0  0  0  0  0  0  0  0
   40.6650   30.1660   50.9450 C   0  0  0  0  0  0  0  0  0  0  0  0
   38.8280   26.3480   55.4290 C   0  0  0  0  0  0  0  0  0  0  0  0
   38.8710   28.7930   49.8390 O   0  0  0  0  0  0  0  0  0  0  0  0
   37.5430   29.1090   54.2570 C   0  0  0  0  0  0  0  0  0  0  0  0
   39.6180   26.1970   56.5410 C   0  0  0  0  0  0  0  0  0  0  0  0
   38.6880   29.7160   54.6370 N   0  0  0  0  0  0  0  0  0  0  0  0
   38.6770   28.7050   51.1310 C   0  0  0  0  0  0  0  0  0  0  0  0
   39.3820   29.4050   51.9270 C   0  0  0  0  0  0  0  0  0  0  0  0
   41.0210   29.0540   48.6000 F   0  0  0  0  0  0  0  0  0  0  0  0
   39.0250   28.5960   55.5850 C   0  0  0  0  0  0  0  0  0  0  0  0
   38.3440   27.5680   55.0380 C   0  0  0  0  0  0  0  0  0  0  0  0
   37.6480   27.7890   53.8600 C   0  0  0  0  0  0  0  0  0  0  0  0
   40.1040   29.7700   49.3660 C   0  0  0  0  0  0  0  0  0  0  0  0
   39.3660   30.0430   53.2090 C   0  0  0  0  0  0  0  0  0  0  0  0
   40.2710   27.2790   57.1030 C   0  0  0  0  0  0  0  0  0  0  0  0
  2 18  1  0
  4 11  1  0
  5  1  1  0
  5  8  1  0
  6 10  1  0
  7 15  1  0
  7  9  1  0
  7 14  1  0
  8 18  2  0
  9 13  1  0
 10 11  1  0
 11 17  1  0
 12 16  1  0
 13  2  2  0
 14 15  1  0
 14  5  1  0
 14 13  1  0
 16  3  1  0
 16  6  1  0
 16  4  1  0
 17  9  1  0
M  END
$$$$

     RDKit          3D

 34 36  0  0  0  0  0  0  0  0999 V2000
   39.4010   29.2590   52.1510 C   0  0  0  0  0  0  0  0  0  0  0  0
   36.7150   34.9850   60.3990 C   0  0  0  0  0  0  0  0  0  0  0  0
   40.2230   25.9040   55.6430 C   0  0  0  0  0  0  0  0  0  0  0  0
   38.7880   25.3600   55.7520 C   0  0  0  0  0  0  0  0  0  0  0  0
   38.2970   37.2270   60.8530 C   0  0  0  0  0  0  0  0  0  0  0  0
   38.4170   26.9690   51.7030 N   0  0  0  0  0  0  0  0  0  0  0  0
   38.1250   33.0770   59.1730 C   0  0  0  0  0  0  0  0  0  0  0  0
   37.8490   27.6150   57.8330 C   0  0  0  0  0  0  0  0  0  0  0  0
   36.7620   33.5310   59.8460 C   0  0  0  0  0  0  0  0  0  0  0  0
   36.7580   36.1200   59.4610 C   0  0  0  0  0  0  0  0  0  0  0  0
   39.6070   31.4040   53.4500 O   0  0  0  0  0  0  0  0  0  0  0  0
   38.2520   32.3850   57.7800 C   0  0  0  0  0  0  0  0  0  0  0  0
   38.8060   31.1900   55.2690 N   0  0  0  0  0  0  0  0  0  0  0  0
   38.9330   28.9260   54.2640 C   0  0  0  0  0  0  0  0  0  0  0  0
   40.1500   29.3860   50.0860 N   0  0  0  0  0  0  0  0  0  0  0  0
   38.6870   24.6040   57.1240 C   0  0  0  0  0  0  0  0  0  0  0  0
   37.8220   26.5770   55.5960 C   0  0  0  0  0  0  0  0  0  0  0  0
   37.1740   38.8880   62.0660 O   0  0  0  0  0  0  0  0  0  0  0  0
   39.1220   28.9910   53.4400 C   0  0  0  0  0  0  0  0  0  0  0  0
   37.2630   28.7690   58.6930 C   0  0  0  0  0  0  0  0  0  0  0  0
   38.9370   37.7340   63.0890 O   0  0  0  0  0  0  0  0  0  0  0  0
   40.6930   30.0390   48.9600 C   0  0  0  0  0  0  0  0  0  0  0  0
   38.8860   30.2080   56.4760 C   0  0  0  0  0  0  0  0  0  0  0  0
   38.3930   33.2160   56.7740 O   0  0  0  0  0  0  0  0  0  0  0  0
   38.1290   29.9530   58.8220 C   0  0  0  0  0  0  0  0  0  0  0  0
   37.2200   37.3260   60.0010 N   0  0  0  0  0  0  0  0  0  0  0  0
   39.1170   30.6340   54.0540 C   0  0  0  0  0  0  0  0  0  0  0  0
   37.9690   30.8980   57.5690 C   0  0  0  0  0  0  0  0  0  0  0  0
   38.1100   38.0510   62.1270 C   0  0  0  0  0  0  0  0  0  0  0  0
   38.3690   29.0000   55.7890 C   0  0  0  0  0  0  0  0  0  0  0  0
   39.1980   28.0390   51.2930 C   0  0  0  0  0  0  0  0  0  0  0  0
   39.9680   30.0320   51.3270 C   0  0  0  0  0  0  0  0  0  0  0  0
   38.2310   27.7050   56.5200 C   0  0  0  0  0  0  0  0  0  0  0  0
   39.6250   28.1530   50.0560 N   0  0  0  0  0  0  0  0  0  0  0  0
  1 19  1  0
  3  4  1  0
  4 16  1  0
  5 29  1  0
  7  9  1  0
  8 20  1  0
  9  2  1  0
 10 26  1  0
 10  2  1  0
 11 27  2  0
 12 24  1  0
 12  7  1  0
 14 19  1  0
 14 30  1  0
 15 32  1  0
 17  4  1  0
 17 33  1  0
 18 29  2  0
 20 25  1  0
 22 15  1  0
 23 13  1  0
 23 28  1  0
 26  5  1  0
 27 14  1  0
 27 13  1  0
 28 12  1  0
 28 25  1  0
 29 21  1  0
 30 23  1  0
 30 33  1  0
 31  6  1  0
 31  1  1  0
 32  1  2  0
 33  8  1  0
 34 15  1  0
 34 31  2  0
M  END
$$$$

     RDKit          3D

 22 24  0  0  0  0  0  0  0  0999 V2000
   40.2740   32.2830   62.1070 N   0  0  0  0  0  0  0  0  0  0  0  0
   37.8260   26.4480   54.9330 C   0  0  0  0  0  0  0  0  0  0  0  0
   39.9120   30.3830   60.7890 C   0  0  0  0  0  0  0  0  0  0  0  0
   38.4280   31.7240   56.2780 C   0  0  0  0  0  0  0  0  0  0  0  0
   38.7600   32.3640   60.3380 N   0  0  0  0  0  0  0  0  0  0  0  0
   40.4780   30.9620   61.7980 C   0  0  0  0  0  0  0  0  0  0  0  0
   37.9560   27.8940   55.4490 C   0  0  0  0  0  0  0  0  0  0  0  0
   40.8530   27.7980   57.2100 O   0  0  0  0  0  0  0  0  0  0  0  0
   37.5960   30.1880   54.4360 C   0  0  0  0  0  0  0  0  0  0  0  0
   39.1530   25.8650   54.7060 C   0  0  0  0  0  0  0  0  0  0  0  0
   40.0440   25.8970   55.9180 C   0  0  0  0  0  0  0  0  0  0  0  0
   39.1240   31.1910   59.9800 C   0  0  0  0  0  0  0  0  0  0  0  0
   39.8160   26.9440   57.0080 C   0  0  0  0  0  0  0  0  0  0  0  0
   37.2280   30.9600   55.6630 C   0  0  0  0  0  0  0  0  0  0  0  0
   37.8920   29.4740   58.7270 C   0  0  0  0  0  0  0  0  0  0  0  0
   38.6920   27.9820   56.8030 C   0  0  0  0  0  0  0  0  0  0  0  0
   38.4070   28.6460   57.7450 N   0  0  0  0  0  0  0  0  0  0  0  0
   39.3980   33.0220   61.3160 C   0  0  0  0  0  0  0  0  0  0  0  0
   38.7680   30.7650   58.6860 C   0  0  0  0  0  0  0  0  0  0  0  0
   37.1730   28.7350   54.6350 C   0  0  0  0  0  0  0  0  0  0  0  0
   38.2640   31.8100   57.7920 C   0  0  0  0  0  0  0  0  0  0  0  0
   40.2190   28.8890   60.4910 C   0  0  0  0  0  0  0  0  0  0  0  0
  2  7  1  0
  3  6  2  0
  4 21  1  0
  5 18  1  0
  6  1  1  0
  7 20  1  0
  7 16  1  0
  9 20  1  0
  9 14  1  0
 10  2  1  0
 10 11  1  0
 11 13  1  0
 12  5  2  0
 12  3  1  0
 13  8  1  0
 14  4  1  0
 16 13  1  0
 16 17  1  0
 17 15  1  0
 18  1  2  0
 19 15  1  0
 19 12  1  0
 21 19  1  0
 22  3  1  0
M  END
$$$$

     RDKit          3D

 20 20  0  0  0  0  0  0  0  0999 V2000
   39.1090   29.4790   56.0390 C   0  0  0  0  0  0  0  0  0  0  0  0
   38.1010   32.8720   54.7280 C   0  0  0  0  0  0  0  0  0  0  0  0
   38.2300   32.3340   57.0860 C   0  0  0  0  0  0  0  0  0  0  0  0
   36.8940   30.5590   54.6010 C   0  0  0  0  0  0  0  0  0  0  0  0
   38.9320   32.1960   49.1040 C   0  0  0  0  0  0  0  0  0  0  0  0
   38.2120   31.2290   54.8150 C   0  0  0  0  0  0  0  0  0  0  0  0
   38.7210   33.4020   56.0210 C   0  0  0  0  0  0  0  0  0  0  0  0
   38.6180   24.9490   55.4870 C   0  0  0  0  0  0  0  0  0  0  0  0
   39.0380   28.0420   56.5070 C   0  0  0  0  0  0  0  0  0  0  0  0
   40.1150   26.9190   55.9590 C   0  0  0  0  0  0  0  0  0  0  0  0
   39.0520   31.3610   48.1740 O   0  0  0  0  0  0  0  0  0  0  0  0
   38.7560   30.7800   52.3130 C   0  0  0  0  0  0  0  0  0  0  0  0
   39.1480   30.6590   51.0810 C   0  0  0  0  0  0  0  0  0  0  0  0
   39.2780   30.9120   53.6410 C   0  0  0  0  0  0  0  0  0  0  0  0
   38.5080   30.9500   56.3340 C   0  0  0  0  0  0  0  0  0  0  0  0
   37.2200   25.2060   55.1800 C   0  0  0  0  0  0  0  0  0  0  0  0
   38.1330   33.7410   48.9400 S   0  0  0  0  0  0  0  0  0  0  0  0
   39.5960   31.9080   50.3800 C   0  0  0  0  0  0  0  0  0  0  0  0
   40.4690   25.8420   54.0330 C   0  0  0  0  0  0  0  0  0  0  0  0
   39.6700   26.1430   55.2730 C   0  0  0  0  0  0  0  0  0  0  0  0
  1  9  2  3
  2  6  1  0
  2  7  1  0
  5 18  1  0
  6  4  1  0
  6 15  1  0
  7  3  1  0
 10  9  1  0
 11  5  2  0
 12 14  2  3
 13 12  1  0
 14  6  1  0
 15  1  1  0
 15  3  1  0
 16  8  1  0
 17  5  1  0
 18 13  1  0
 20 19  1  0
 20  8  1  0
 20 10  1  0
M  END
$$$$

     RDKit          3D

 18 18  0  0  0  0  0  0  0  0999 V2000
   38.5640   32.9490   61.0500 O   0  0  0  0  0  0  0  0  0  0  0  0
   37.3730   37.5770   60.4020 C   0  0  0  0  0  0  0  0  0  0  0  0
   37.7430   30.5510   55.1760 N   0  0  0  0  0  0  0  0  0  0  0  0
   37.6720   29.5640   56.1310 C   0  0  0  0  0  0  0  0  0  0  0  0
   38.4370   33.9680   60.1410 C   0  0  0  0  0  0  0  0  0  0  0  0
   37.2270   29.3050   57.1610 O   0  0  0  0  0  0  0  0  0  0  0  0
   38.7470   35.7940   61.8060 C   0  0  0  0  0  0  0  0  0  0  0  0
   38.7110   31.5060   55.0840 C   0  0  0  0  0  0  0  0  0  0  0  0
   37.2940   36.1910   59.9580 C   0  0  0  0  0  0  0  0  0  0  0  0
   37.3490   33.7760   59.2290 C   0  0  0  0  0  0  0  0  0  0  0  0
   39.1750   31.7270   60.6390 C   0  0  0  0  0  0  0  0  0  0  0  0
   38.3460   32.8600   55.6040 C   0  0  0  0  0  0  0  0  0  0  0  0
   38.1720   35.4250   60.6860 C   0  0  0  0  0  0  0  0  0  0  0  0
   37.5170   33.7730   57.7630 N   0  0  0  0  0  0  0  0  0  0  0  0
   38.4320   32.8160   57.2090 C   0  0  0  0  0  0  0  0  0  0  0  0
   39.5530   37.2760   63.2910 C   0  0  0  0  0  0  0  0  0  0  0  0
   38.1760   37.9790   61.3870 C   0  0  0  0  0  0  0  0  0  0  0  0
   38.6690   37.0060   62.1510 C   0  0  0  0  0  0  0  0  0  0  0  0
  2 17  1  0
  3  4  1  0
  4  6  2  0
  5 10  1  0
  5  1  1  0
  7 18  2  0
  8  3  1  0
  8 12  1  0
  9  2  1  0
  9 13  1  0
 11  1  1  0
 12 15  1  0
 13  5  1  0
 13  7  1  0
 14 10  1  0
 15 14  1  0
 17 18  1  0
 18 16  1  0
M  END
$$$$

     RDKit          3D

 24 26  0  0  0  0  0  0  0  0999 V2000
   39.0140   31.6550   55.6950 C   0  0  0  0  0  0  0  0  0  0  0  0
   38.5960   34.9650   61.0000 C   0  0  0  0  0  0  0  0  0  0  0  0
   38.2220   38.2610   61.3880 C   0  0  0  0  0  0  0  0  0  0  0  0
   38.9290   32.8260   59.8900 C   0  0  0  0  0  0  0  0  0  0  0  0
   39.6590   27.8670   49.8010 C   0  0  0  0  0  0  0  0  0  0  0  0
   37.9230   31.3970   57.6110 O   0  0  0  0  0  0  0  0  0  0  0  0
   40.4380   30.1560   50.1670 C   0  0  0  0  0  0  0  0  0  0  0  0
   38.1520   32.5710   57.6870 C   0  0  0  0  0  0  0  0  0  0  0  0
   37.0310   37.4890   61.4700 C   0  0  0  0  0  0  0  0  0  0  0  0
   38.4680   30.1900   55.3760 C   0  0  0  0  0  0  0  0  0  0  0  0
   38.7840   28.9740   53.1630 C   0  0  0  0  0  0  0  0  0  0  0  0
   38.2830   33.3050   58.8390 C   0  0  0  0  0  0  0  0  0  0  0  0
   36.9370   36.7370   60.1260 C   0  0  0  0  0  0  0  0  0  0  0  0
   38.1640   32.7250   56.2190 N   0  0  0  0  0  0  0  0  0  0  0  0
   39.1500   33.6340   60.9940 C   0  0  0  0  0  0  0  0  0  0  0  0
   37.8160   27.9070   54.0400 S   0  0  0  0  0  0  0  0  0  0  0  0
   39.0500   30.1200   53.7750 O   0  0  0  0  0  0  0  0  0  0  0  0
   40.0590   30.1920   51.4930 C   0  0  0  0  0  0  0  0  0  0  0  0
   37.5620   28.8150   55.5390 C   0  0  0  0  0  0  0  0  0  0  0  0
   37.6700   34.6570   58.9140 C   0  0  0  0  0  0  0  0  0  0  0  0
   40.3290   29.0490   49.3260 C   0  0  0  0  0  0  0  0  0  0  0  0
   39.2620   28.9540   51.9610 C   0  0  0  0  0  0  0  0  0  0  0  0
   39.0780   27.9300   51.0980 C   0  0  0  0  0  0  0  0  0  0  0  0
   37.7340   35.3570   60.0480 C   0  0  0  0  0  0  0  0  0  0  0  0
  1 14  1  0
  3  9  1  0
  4 15  2  0
  5 23  1  0
  6  8  2  0
  7 18  2  0
  8 12  1  0
 10 19  2  0
 10  1  1  0
 11 22  1  0
 11 17  1  0
 11 16  1  0
 12 20  2  0
 12  4  1  0
 13  9  1  0
 14  8  1  0
 15  2  1  0
 16 19  1  0
 17 10  1  0
 18 22  1  0
 20 24  1  0
 21  5  2  0
 21  7  1  0
 23 22  2  0
 24 13  1  0
 24  2  2  0
M  END
$$$$

     RDKit          3D

 21 23  0  0  0  0  0  0  0  0999 V2000
   38.8770   36.7650   61.2960 C   0  0  0  0  0  0  0  0  0  0  0  0
   36.5260   29.7180   59.1370 C   0  0  0  0  0  0  0  0  0  0  0  0
   37.4720   30.4060   55.2140 C   0  0  0  0  0  0  0  0  0  0  0  0
   36.5240   31.1290   58.8710 O   0  0  0  0  0  0  0  0  0  0  0  0
   39.3010   37.5330   62.1340 O   0  0  0  0  0  0  0  0  0  0  0  0
   38.7880   29.0530   58.3050 C   0  0  0  0  0  0  0  0  0  0  0  0
   38.3660   33.1920   56.4100 C   0  0  0  0  0  0  0  0  0  0  0  0
   38.9550   34.5590   60.6420 C   0  0  0  0  0  0  0  0  0  0  0  0
   39.7030   28.7030   58.9820 O   0  0  0  0  0  0  0  0  0  0  0  0
   39.6110   35.5780   61.1330 C   0  0  0  0  0  0  0  0  0  0  0  0
   38.2300   29.7300   57.4010 N   0  0  0  0  0  0  0  0  0  0  0  0
   36.9960   38.0450   60.9960 O   0  0  0  0  0  0  0  0  0  0  0  0
   37.7420   30.7970   56.5810 C   0  0  0  0  0  0  0  0  0  0  0  0
   37.7080   34.6800   59.9740 C   0  0  0  0  0  0  0  0  0  0  0  0
   37.0780   36.0130   59.7910 C   0  0  0  0  0  0  0  0  0  0  0  0
   38.7800   31.5630   56.5360 O   0  0  0  0  0  0  0  0  0  0  0  0
   37.8600   30.3210   58.6950 C   0  0  0  0  0  0  0  0  0  0  0  0
   37.6220   33.7300   58.8390 O   0  0  0  0  0  0  0  0  0  0  0  0
   41.0710   35.4630   61.5260 C   0  0  0  0  0  0  0  0  0  0  0  0
   37.8560   37.1730   60.3100 C   0  0  0  0  0  0  0  0  0  0  0  0
   38.7130   33.4310   57.8440 C   0  0  0  0  0  0  0  0  0  0  0  0
  1  5  2  0
  4  2  1  0
  6 17  1  0
  6  9  1  0
  7 16  1  0
  7 21  1  0
  8 10  1  0
 10  1  1  0
 10 19  1  0
 11  6  1  0
 11 17  1  0
 13  3  1  0
 13 11  1  0
 14 18  1  0
 14  8  1  0
 15 14  1  0
 15 20  1  0
 16 13  1  0
 17  4  1  0
 17  2  1  0
 20 12  1  0
 20  1  1  0
 21 18  1  0
M  END
$$$$

     RDKit          3D

 38 40  0  0  0  0  0  0  0  0999 V2000
   39.1780   26.9580   50.4800 C   0  0  0  0  0  0  0  0  0  0  0  0
   39.3060   37.0730   61.9230 C   0  0  0  0  0  0  0  0  0  0  0  0
   36.7980   31.9260   60.8290 C   0  0  0  0  0  0  0  0  0  0  0  0
   38.6130   39.3470   61.5750 O   0  0  0  0  0  0  0  0  0  0  0  0
   37.6850   33.9500   60.8230 N   0  0  0  0  0  0  0  0  0  0  0  0
   38.2270   27.1150   55.2520 C   0  0  0  0  0  0  0  0  0  0  0  0
   40.3270   26.9540   50.7150 O   0  0  0  0  0  0  0  0  0  0  0  0
   39.1550   28.1100   57.4160 O   0  0  0  0  0  0  0  0  0  0  0  0
   38.6960   33.3770   60.0650 C   0  0  0  0  0  0  0  0  0  0  0  0
   38.7970   25.9050   55.8750 C   0  0  0  0  0  0  0  0  0  0  0  0
   36.8030   31.7440   59.4190 N   0  0  0  0  0  0  0  0  0  0  0  0
   37.0140   24.2400   55.5630 C   0  0  0  0  0  0  0  0  0  0  0  0
   39.4530   31.7610   48.5570 C   0  0  0  0  0  0  0  0  0  0  0  0
   38.7630   29.3910   48.6990 C   0  0  0  0  0  0  0  0  0  0  0  0
   38.6890   32.7900   57.5690 C   0  0  0  0  0  0  0  0  0  0  0  0
   36.9500   36.2290   60.5430 C   0  0  0  0  0  0  0  0  0  0  0  0
   35.7590   31.3820   61.4120 O   0  0  0  0  0  0  0  0  0  0  0  0
   37.2530   37.6540   60.6660 C   0  0  0  0  0  0  0  0  0  0  0  0
   38.3870   38.0430   61.4020 C   0  0  0  0  0  0  0  0  0  0  0  0
   37.4610   30.3280   57.6540 O   0  0  0  0  0  0  0  0  0  0  0  0
   39.0170   35.7110   61.8020 C   0  0  0  0  0  0  0  0  0  0  0  0
   40.0050   30.4260   52.0950 C   0  0  0  0  0  0  0  0  0  0  0  0
   36.6920   33.2360   61.1740 N   0  0  0  0  0  0  0  0  0  0  0  0
   38.4570   31.3440   55.5410 C   0  0  0  0  0  0  0  0  0  0  0  0
   39.6460   29.0150   54.4240 C   0  0  0  0  0  0  0  0  0  0  0  0
   37.8670   35.3140   61.1160 C   0  0  0  0  0  0  0  0  0  0  0  0
   38.0540   30.1620   56.3430 C   0  0  0  0  0  0  0  0  0  0  0  0
   39.1330   30.5360   47.9000 C   0  0  0  0  0  0  0  0  0  0  0  0
   38.7520   28.6020   56.0250 S   0  0  0  0  0  0  0  0  0  0  0  0
   38.5760   28.2510   50.9980 C   0  0  0  0  0  0  0  0  0  0  0  0
   39.7950   29.6100   53.1510 C   0  0  0  0  0  0  0  0  0  0  0  0
   39.6410   31.8410   49.9630 C   0  0  0  0  0  0  0  0  0  0  0  0
   38.9290   29.3890   50.0800 C   0  0  0  0  0  0  0  0  0  0  0  0
   38.4390   24.1790   57.5830 C   0  0  0  0  0  0  0  0  0  0  0  0
   39.6210   30.5590   50.6830 C   0  0  0  0  0  0  0  0  0  0  0  0
   38.0600   32.5390   59.0120 C   0  0  0  0  0  0  0  0  0  0  0  0
   37.9880   32.6030   56.2900 N   0  0  0  0  0  0  0  0  0  0  0  0
   37.7280   25.1870   56.5460 C   0  0  0  0  0  0  0  0  0  0  0  0
  1  7  1  0
  1 30  1  0
  3 23  1  0
  3 17  1  0
  5 26  1  0
  5 23  1  0
  6 10  1  0
  6 29  1  0
  9  5  1  0
 10 38  1  0
 11  3  1  0
 12 38  1  0
 13 32  1  0
 14 33  2  0
 16 18  2  0
 16 26  1  0
 18 19  1  0
 19  4  1  0
 19  2  2  0
 21  2  1  0
 22 31  1  0
 24 37  1  0
 24 27  1  0
 25 29  1  0
 26 21  2  0
 27 20  2  0
 28 13  2  0
 28 14  1  0
 29 27  1  0
 29  8  1  0
 31 25  3  0
 32 35  2  0
 33 35  1  0
 33 30  1  0
 35 22  1  0
 36 15  1  0
 36 11  1  0
 36  9  1  0
 37 15  1  0
 38 34  1  0
M  END
$$$$

     RDKit          3D

 25 26  0  0  0  0  0  0  0  0999 V2000
   38.7590   29.6430   53.3150 C   0  0  0  0  0  0  0  0  0  0  0  0
   38.2090   30.3950   56.8430 C   0  0  0  0  0  0  0  0  0  0  0  0
   36.9860   36.7410   60.5420 C   0  0  0  0  0  0  0  0  0  0  0  0
   38.4330   33.4070   59.2000 C   0  0  0  0  0  0  0  0  0  0  0  0
   39.7310   34.1980   61.0470 C   0  0  0  0  0  0  0  0  0  0  0  0
   39.1090   35.4300   61.0200 C   0  0  0  0  0  0  0  0  0  0  0  0
   39.4080   33.2370   60.1720 C   0  0  0  0  0  0  0  0  0  0  0  0
   39.1620   27.1250   50.7770 O   0  0  0  0  0  0  0  0  0  0  0  0
   37.9810   31.1880   57.9930 C   0  0  0  0  0  0  0  0  0  0  0  0
   38.0810   31.4290   55.4090 S   0  0  0  0  0  0  0  0  0  0  0  0
   36.4780   37.0570   59.3360 N   0  0  0  0  0  0  0  0  0  0  0  0
   39.9610   29.3470   50.7990 C   0  0  0  0  0  0  0  0  0  0  0  0
   40.1980   30.4760   51.5090 C   0  0  0  0  0  0  0  0  0  0  0  0
   39.7520   36.5110   61.9160 C   0  0  0  0  0  0  0  0  0  0  0  0
   38.5560   29.0840   56.5800 C   0  0  0  0  0  0  0  0  0  0  0  0
   39.3340   28.2800   51.5350 C   0  0  0  0  0  0  0  0  0  0  0  0
   38.3160   32.5380   58.0540 C   0  0  0  0  0  0  0  0  0  0  0  0
   39.6170   30.6240   52.7400 C   0  0  0  0  0  0  0  0  0  0  0  0
   40.1350   27.2600   56.3970 C   0  0  0  0  0  0  0  0  0  0  0  0
   37.6480   34.6550   59.2880 C   0  0  0  0  0  0  0  0  0  0  0  0
   39.5230   28.1860   57.3650 C   0  0  0  0  0  0  0  0  0  0  0  0
   40.3690   29.3660   49.5580 F   0  0  0  0  0  0  0  0  0  0  0  0
   38.8270   28.4170   52.7200 C   0  0  0  0  0  0  0  0  0  0  0  0
   37.9780   35.5950   60.2590 C   0  0  0  0  0  0  0  0  0  0  0  0
   37.7610   30.0830   54.3560 C   0  0  0  0  0  0  0  0  0  0  0  0
  1 25  1  0
  2 15  1  0
  2  9  1  0
  4 20  2  0
  4  7  1  0
  6  5  1  0
  6 14  1  0
  7  5  2  0
  8 16  1  0
  9 17  2  3
 10  2  1  0
 11  3  1  0
 12 13  1  0
 12 16  2  0
 13 18  2  0
 15 21  1  0
 16 23  1  0
 17  4  1  0
 18  1  1  0
 19 21  1  0
 20 24  1  0
 22 12  1  0
 23  1  2  0
 24  3  1  0
 24  6  2  0
 25 10  1  0
M  END
$$$$

     RDKit          3D

 42 47  0  0  0  0  0  0  0  0999 V2000
   40.0470   27.4270   50.0890 C   0  0  0  0  0  0  0  0  0  0  0  0
   38.7570   33.5990   56.4530 C   0  0  0  0  0  0  0  0  0  0  0  0
   38.1360   36.3100   61.0240 C   0  0  0  0  0  0  0  0  0  0  0  0
   38.8450   38.8090   61.2130 C   0  0  0  0  0  0  0  0  0  0  0  0
   36.8900   31.4440   60.4290 O   0  0  0  0  0  0  0  0  0  0  0  0
   36.9030   34.3030   60.4990 C   0  0  0  0  0  0  0  0  0  0  0  0
   39.3050   35.5760   61.2070 C   0  0  0  0  0  0  0  0  0  0  0  0
   38.1300   33.5050   60.5820 C   0  0  0  0  0  0  0  0  0  0  0  0
   39.4360   31.0450   49.3960 C   0  0  0  0  0  0  0  0  0  0  0  0
   36.7980   37.8690   61.8820 C   0  0  0  0  0  0  0  0  0  0  0  0
   39.5110   29.2070   51.5120 C   0  0  0  0  0  0  0  0  0  0  0  0
   38.7720   27.7540   57.1420 C   0  0  0  0  0  0  0  0  0  0  0  0
   38.9020   26.9910   52.2160 C   0  0  0  0  0  0  0  0  0  0  0  0
   39.3420   27.9450   58.5580 C   0  0  0  0  0  0  0  0  0  0  0  0
   39.2180   27.6300   54.6650 C   0  0  0  0  0  0  0  0  0  0  0  0
   38.9430   33.0120   57.8920 C   0  0  0  0  0  0  0  0  0  0  0  0
   37.3390   27.3180   57.1820 C   0  0  0  0  0  0  0  0  0  0  0  0
   37.9330   29.5540   54.2910 O   0  0  0  0  0  0  0  0  0  0  0  0
   37.6560   31.3960   56.3890 C   0  0  0  0  0  0  0  0  0  0  0  0
   38.9660   31.8090   48.2300 O   0  0  0  0  0  0  0  0  0  0  0  0
   38.4370   28.7980   55.0570 C   0  0  0  0  0  0  0  0  0  0  0  0
   38.5950   32.3150   55.5910 C   0  0  0  0  0  0  0  0  0  0  0  0
   38.9410   25.4270   55.2200 O   0  0  0  0  0  0  0  0  0  0  0  0
   38.7210   29.0560   59.2240 C   0  0  0  0  0  0  0  0  0  0  0  0
   39.6170   26.6350   51.0870 C   0  0  0  0  0  0  0  0  0  0  0  0
   38.3710   24.7940   56.3530 C   0  0  0  0  0  0  0  0  0  0  0  0
   38.2870   31.9370   58.6600 N   0  0  0  0  0  0  0  0  0  0  0  0
   40.1360   29.7690   49.1750 C   0  0  0  0  0  0  0  0  0  0  0  0
   38.1270   32.0730   60.1460 C   0  0  0  0  0  0  0  0  0  0  0  0
   39.3200   34.1990   60.9830 C   0  0  0  0  0  0  0  0  0  0  0  0
   38.3440   26.3880   54.5170 C   0  0  0  0  0  0  0  0  0  0  0  0
   39.0290   31.4570   50.6800 C   0  0  0  0  0  0  0  0  0  0  0  0
   37.9010   37.7150   61.1830 C   0  0  0  0  0  0  0  0  0  0  0  0
   37.0030   35.6500   60.7390 C   0  0  0  0  0  0  0  0  0  0  0  0
   38.1500   30.1680   57.0700 C   0  0  0  0  0  0  0  0  0  0  0  0
   39.4650   30.5990   51.6760 C   0  0  0  0  0  0  0  0  0  0  0  0
   38.4110   26.0950   53.1160 O   0  0  0  0  0  0  0  0  0  0  0  0
   38.8800   27.9970   52.2450 N   0  0  0  0  0  0  0  0  0  0  0  0
   39.9570   28.7440   50.2340 C   0  0  0  0  0  0  0  0  0  0  0  0
   38.6780   30.5060   58.4250 C   0  0  0  0  0  0  0  0  0  0  0  0
   38.9130   29.0150   56.5220 N   0  0  0  0  0  0  0  0  0  0  0  0
   36.6900   37.9480   60.8640 O   0  0  0  0  0  0  0  0  0  0  0  0
  1 39  2  0
  1 25  1  0
  2 16  1  0
  3 33  1  0
  3  7  1  0
  6  8  2  0
  6 34  1  0
  8 30  1  0
  9 20  1  0
  9 32  1  0
 11 36  1  0
 11 38  1  0
 12 17  1  0
 12 14  1  0
 13 38  2  0
 13 37  1  0
 14 24  1  0
 15 21  1  0
 16 27  1  0
 18 21  2  0
 21 41  1  0
 22 19  1  0
 22  2  1  0
 23 26  1  0
 25 13  1  0
 27 29  1  0
 28  9  1  0
 28 39  1  0
 29  5  1  0
 29  8  1  0
 30  7  2  0
 31 15  1  0
 31 23  1  0
 32 36  1  0
 33  4  1  0
 33 10  1  0
 34  3  2  0
 35 19  1  0
 35 40  1  0
 37 31  1  0
 39 11  1  0
 40 27  1  0
 40 24  1  0
 41 35  1  0
 41 12  1  0
 42 33  1  0
 42 10  1  0
M  END
$$$$

     RDKit          3D

 37 39  0  0  0  0  0  0  0  0999 V2000
   38.8190   36.0180   61.2920 C   0  0  0  0  0  0  0  0  0  0  0  0
   37.3710   24.4020   55.6420 C   0  0  0  0  0  0  0  0  0  0  0  0
   38.7400   27.5360   51.6400 C   0  0  0  0  0  0  0  0  0  0  0  0
   38.3770   31.5170   56.1230 C   0  0  0  0  0  0  0  0  0  0  0  0
   38.9620   29.2270   55.7440 C   0  0  0  0  0  0  0  0  0  0  0  0
   40.8690   29.8650   48.9090 O   0  0  0  0  0  0  0  0  0  0  0  0
   38.2890   26.1190   54.6440 O   0  0  0  0  0  0  0  0  0  0  0  0
   37.4370   37.7940   60.5260 N   0  0  0  0  0  0  0  0  0  0  0  0
   39.3450   28.1850   50.6980 C   0  0  0  0  0  0  0  0  0  0  0  0
   38.4350   24.6070   56.6920 C   0  0  0  0  0  0  0  0  0  0  0  0
   39.1120   32.7070   56.2580 C   0  0  0  0  0  0  0  0  0  0  0  0
   38.0070   32.9570   60.8010 C   0  0  0  0  0  0  0  0  0  0  0  0
   39.4690   31.4850   49.5260 N   0  0  0  0  0  0  0  0  0  0  0  0
   39.7540   29.5610   50.9230 C   0  0  0  0  0  0  0  0  0  0  0  0
   37.8110   25.2620   55.2260 C   0  0  0  0  0  0  0  0  0  0  0  0
   40.0930   30.3390   49.7180 N   0  0  0  0  0  0  0  0  0  0  0  0
   38.5360   30.2320   56.9190 C   0  0  0  0  0  0  0  0  0  0  0  0
   40.1380   26.5410   55.0370 O   0  0  0  0  0  0  0  0  0  0  0  0
   37.4260   38.0960   61.8070 C   0  0  0  0  0  0  0  0  0  0  0  0
   38.7060   27.7010   56.1380 C   0  0  0  0  0  0  0  0  0  0  0  0
   36.7150   36.5040   59.8830 C   0  0  0  0  0  0  0  0  0  0  0  0
   39.0170   32.2070   60.0250 C   0  0  0  0  0  0  0  0  0  0  0  0
   38.3650   28.0940   52.5450 C   0  0  0  0  0  0  0  0  0  0  0  0
   38.4030   31.1590   58.3310 O   0  0  0  0  0  0  0  0  0  0  0  0
   39.4290   30.8850   60.3970 C   0  0  0  0  0  0  0  0  0  0  0  0
   37.5210   35.2450   60.4690 C   0  0  0  0  0  0  0  0  0  0  0  0
   37.7140   31.1940   55.0390 O   0  0  0  0  0  0  0  0  0  0  0  0
   39.4050   26.7630   55.6090 C   0  0  0  0  0  0  0  0  0  0  0  0
   39.8000   30.0680   52.2610 C   0  0  0  0  0  0  0  0  0  0  0  0
   36.1150   33.7710   59.3890 N   0  0  0  0  0  0  0  0  0  0  0  0
   36.9780   37.0930   62.8530 C   0  0  0  0  0  0  0  0  0  0  0  0
   37.6780   34.0110   59.7710 C   0  0  0  0  0  0  0  0  0  0  0  0
   38.5570   32.1930   58.5690 O   0  0  0  0  0  0  0  0  0  0  0  0
   38.3250   36.5320   62.5480 C   0  0  0  0  0  0  0  0  0  0  0  0
   39.4860   29.5310   54.6310 O   0  0  0  0  0  0  0  0  0  0  0  0
   38.0100   33.8400   56.8410 O   0  0  0  0  0  0  0  0  0  0  0  0
   39.1970   29.2830   53.3230 C   0  0  0  0  0  0  0  0  0  0  0  0
  2 10  1  0
  3 23  1  0
  4 27  1  0
  4 11  1  0
  4 17  1  0
  5 20  1  0
  5 17  1  0
  6 16  1  0
  7 15  1  0
  7 28  1  0
  8 19  1  0
  9 14  1  0
  9  3  2  0
 11 36  1  0
 13 16  1  0
 14 29  2  0
 15  2  1  0
 16 14  1  0
 17 24  1  0
 19 34  1  0
 19 31  1  0
 21 26  1  0
 21  8  1  0
 22 25  1  0
 22 12  1  0
 23 37  2  0
 24 33  1  0
 26 32  1  0
 26  1  1  0
 28 18  1  0
 28 20  1  0
 29 37  1  0
 32 30  1  0
 32 12  1  0
 33 22  1  0
 34  1  1  0
 34 31  1  0
 35  5  1  0
 37 35  1  0
M  END
$$$$

     RDKit          3D

 30 32  0  0  0  0  0  0  0  0999 V2000
   39.2350   36.5450   61.9740 C   0  0  0  0  0  0  0  0  0  0  0  0
   36.9640   37.8030   60.5610 O   0  0  0  0  0  0  0  0  0  0  0  0
   37.3470   30.0730   56.1150 C   0  0  0  0  0  0  0  0  0  0  0  0
   38.3210   29.6860   58.5460 C   0  0  0  0  0  0  0  0  0  0  0  0
   39.9090   28.2920   56.9220 C   0  0  0  0  0  0  0  0  0  0  0  0
   36.8710   34.3660   59.0440 C   0  0  0  0  0  0  0  0  0  0  0  0
   37.2700   34.3930   61.4720 C   0  0  0  0  0  0  0  0  0  0  0  0
   37.2060   36.8460   60.5780 C   0  0  0  0  0  0  0  0  0  0  0  0
   38.6020   32.5440   59.1910 C   0  0  0  0  0  0  0  0  0  0  0  0
   39.9100   27.8490   59.6130 C   0  0  0  0  0  0  0  0  0  0  0  0
   37.1130   36.9780   62.5890 O   0  0  0  0  0  0  0  0  0  0  0  0
   37.6230   33.1540   61.2540 N   0  0  0  0  0  0  0  0  0  0  0  0
   39.0310   27.7850   55.7520 C   0  0  0  0  0  0  0  0  0  0  0  0
   38.3070   31.7260   57.5940 C   0  0  0  0  0  0  0  0  0  0  0  0
   41.1270   27.7450   57.1850 C   0  0  0  0  0  0  0  0  0  0  0  0
   39.6860   26.0230   53.6640 C   0  0  0  0  0  0  0  0  0  0  0  0
   38.3130   30.2280   57.1940 C   0  0  0  0  0  0  0  0  0  0  0  0
   39.4660   26.5250   55.0530 C   0  0  0  0  0  0  0  0  0  0  0  0
   39.6490   29.7910   52.7450 C   0  0  0  0  0  0  0  0  0  0  0  0
   38.9800   27.1660   52.7600 C   0  0  0  0  0  0  0  0  0  0  0  0
   39.8380   37.8180   62.3940 C   0  0  0  0  0  0  0  0  0  0  0  0
   39.2720   28.5660   58.4800 C   0  0  0  0  0  0  0  0  0  0  0  0
   37.5320   33.0510   59.6830 C   0  0  0  0  0  0  0  0  0  0  0  0
   38.5690   28.7840   54.6520 C   0  0  0  0  0  0  0  0  0  0  0  0
   37.9470   36.7230   62.0640 C   0  0  0  0  0  0  0  0  0  0  0  0
   37.8430   35.3940   60.3180 C   0  0  0  0  0  0  0  0  0  0  0  0
   37.5900   29.7370   54.7880 C   0  0  0  0  0  0  0  0  0  0  0  0
   40.2830   35.7030   61.5570 O   0  0  0  0  0  0  0  0  0  0  0  0
   38.7770   28.5210   53.2390 C   0  0  0  0  0  0  0  0  0  0  0  0
   39.2840   30.8570   53.6080 O   0  0  0  0  0  0  0  0  0  0  0  0
  1 25  1  0
  1 21  1  0
  2  8  2  0
  3 17  1  0
  5 15  2  0
  5 22  1  0
  6 23  1  0
  6 26  1  0
  8 25  1  0
 12  7  1  0
 13 18  1  0
 13  5  1  0
 14  9  1  0
 16 18  1  0
 17 14  1  0
 17  4  1  0
 19 30  1  0
 20 29  1  0
 20 16  1  0
 22  4  1  0
 22 10  1  0
 23  9  1  0
 23 12  1  0
 24 27  1  0
 24 13  1  0
 25 11  2  0
 26  8  1  0
 26  7  1  0
 27  3  1  0
 28  1  1  0
 29 19  1  0
 29 24  1  0
M  END
$$$$

     RDKit          3D

 37 39  0  0  0  0  0  0  0  0999 V2000
   39.8340   28.9460   56.5590 C   0  0  0  0  0  0  0  0  0  0  0  0
   39.9590   29.1190   53.8620 C   0  0  0  0  0  0  0  0  0  0  0  0
   39.7330   37.0130   62.0450 C   0  0  0  0  0  0  0  0  0  0  0  0
   38.4130   28.5160   52.1670 C   0  0  0  0  0  0  0  0  0  0  0  0
   37.2970   37.4730   60.6710 C   0  0  0  0  0  0  0  0  0  0  0  0
   37.9750   29.6680   58.6780 C   0  0  0  0  0  0  0  0  0  0  0  0
   39.3570   29.6950   48.8040 F   0  0  0  0  0  0  0  0  0  0  0  0
   37.3010   34.6570   60.8330 C   0  0  0  0  0  0  0  0  0  0  0  0
   39.2910   26.8760   53.0120 C   0  0  0  0  0  0  0  0  0  0  0  0
   36.4040   37.5810   60.5560 O   0  0  0  0  0  0  0  0  0  0  0  0
   40.0750   29.8050   55.2420 C   0  0  0  0  0  0  0  0  0  0  0  0
   38.3220   27.3040   54.4450 S   0  0  0  0  0  0  0  0  0  0  0  0
   38.4760   28.6040   50.7150 O   0  0  0  0  0  0  0  0  0  0  0  0
   39.4570   34.5390   60.4340 S   0  0  0  0  0  0  0  0  0  0  0  0
   38.4160   33.9880   60.1210 C   0  0  0  0  0  0  0  0  0  0  0  0
   37.8960   33.8240   56.2100 O   0  0  0  0  0  0  0  0  0  0  0  0
   38.1270   32.4410   54.2350 C   0  0  0  0  0  0  0  0  0  0  0  0
   38.4920   25.9840   55.2850 O   0  0  0  0  0  0  0  0  0  0  0  0
   40.0460   32.8740   55.9810 O   0  0  0  0  0  0  0  0  0  0  0  0
   38.5970   32.6070   55.8550 P   0  0  0  0  0  0  0  0  0  0  0  0
   39.6840   29.2350   50.0210 C   0  0  0  0  0  0  0  0  0  0  0  0
   37.7800   28.3560   57.8720 C   0  0  0  0  0  0  0  0  0  0  0  0
   39.9010   27.7060   54.2860 O   0  0  0  0  0  0  0  0  0  0  0  0
   37.7350   35.8690   61.0250 C   0  0  0  0  0  0  0  0  0  0  0  0
   40.6180   28.2890   50.0670 F   0  0  0  0  0  0  0  0  0  0  0  0
   38.4600   28.4160   56.6030 C   0  0  0  0  0  0  0  0  0  0  0  0
   38.9560   35.8500   61.2360 C   0  0  0  0  0  0  0  0  0  0  0  0
   38.4000   32.1210   58.5240 C   0  0  0  0  0  0  0  0  0  0  0  0
   37.8280   30.9220   57.8270 C   0  0  0  0  0  0  0  0  0  0  0  0
   38.1210   31.2510   56.4640 N   0  0  0  0  0  0  0  0  0  0  0  0
   37.9350   38.4720   60.7940 O   0  0  0  0  0  0  0  0  0  0  0  0
   37.7470   28.4160   55.4370 O   0  0  0  0  0  0  0  0  0  0  0  0
   38.4040   32.9010   59.3550 C   0  0  0  0  0  0  0  0  0  0  0  0
   39.2410   29.5800   52.9590 C   0  0  0  0  0  0  0  0  0  0  0  0
   40.1130   30.3710   50.6400 F   0  0  0  0  0  0  0  0  0  0  0  0
   38.3130   27.3270   52.6150 C   0  0  0  0  0  0  0  0  0  0  0  0
   35.9320   34.0890   61.1530 C   0  0  0  0  0  0  0  0  0  0  0  0
  1 26  1  0
  2 34  1  0
  2 23  1  0
  2 11  1  0
  4 13  1  0
  4 36  1  0
  4 34  1  0
  5 31  1  0
  7 21  1  0
  8 24  1  0
  8 37  1  0
  9 12  1  0
 10  5  2  0
 11  1  1  0
 12 18  1  0
 12 32  1  0
 14 27  1  0
 15 14  1  0
 15  8  1  0
 20 17  1  0
 20 19  2  0
 20 16  1  0
 20 30  1  0
 21 25  1  0
 21 35  1  0
 21 13  1  0
 22  6  1  0
 23 12  1  0
 24  5  1  0
 24 27  1  0
 26 22  1  0
 27  3  1  0
 28 33  2  0
 29 28  1  0
 29  6  1  0
 30 29  1  0
 32 26  1  0
 33 15  2  0
 36  9  1  0
M  END
$$$$

     RDKit          3D

 26 27  0  0  0  0  0  0  0  0999 V2000
   39.7040   28.6040   56.3660 C   0  0  0  0  0  0  0  0  0  0  0  0
   39.3580   35.4050   60.4130 C   0  0  0  0  0  0  0  0  0  0  0  0
   39.6390   29.7920   52.9520 C   0  0  0  0  0  0  0  0  0  0  0  0
   36.5930   31.5590   59.1120 O   0  0  0  0  0  0  0  0  0  0  0  0
   39.1150   29.0190   53.9340 C   0  0  0  0  0  0  0  0  0  0  0  0
   35.6940   33.8760   60.8430 C   0  0  0  0  0  0  0  0  0  0  0  0
   38.2900   33.7540   56.7650 C   0  0  0  0  0  0  0  0  0  0  0  0
   37.9010   32.1790   58.8550 P   0  0  0  0  0  0  0  0  0  0  0  0
   38.4310   27.8670   53.6470 C   0  0  0  0  0  0  0  0  0  0  0  0
   37.6340   33.8940   59.2750 C   0  0  0  0  0  0  0  0  0  0  0  0
   39.6640   29.3560   51.6290 C   0  0  0  0  0  0  0  0  0  0  0  0
   37.9390   32.4230   54.3870 O   0  0  0  0  0  0  0  0  0  0  0  0
   38.9480   27.7210   50.0090 O   0  0  0  0  0  0  0  0  0  0  0  0
   35.6540   35.2890   58.8090 N   0  0  0  0  0  0  0  0  0  0  0  0
   39.5660   34.0270   60.8150 C   0  0  0  0  0  0  0  0  0  0  0  0
   39.3470   30.8190   55.5430 C   0  0  0  0  0  0  0  0  0  0  0  0
   38.4090   27.3940   52.3310 C   0  0  0  0  0  0  0  0  0  0  0  0
   40.3020   30.1620   50.4790 C   0  0  0  0  0  0  0  0  0  0  0  0
   36.3640   34.4950   59.5240 C   0  0  0  0  0  0  0  0  0  0  0  0
   37.1530   36.0430   58.9700 S   0  0  0  0  0  0  0  0  0  0  0  0
   39.1290   31.6560   59.6800 O   0  0  0  0  0  0  0  0  0  0  0  0
   38.1530   32.3300   57.0260 N   0  0  0  0  0  0  0  0  0  0  0  0
   38.0970   31.6520   55.6100 C   0  0  0  0  0  0  0  0  0  0  0  0
   38.9830   28.0980   51.3270 C   0  0  0  0  0  0  0  0  0  0  0  0
   38.6940   34.4980   59.6330 C   0  0  0  0  0  0  0  0  0  0  0  0
   39.1150   29.4280   55.2720 N   0  0  0  0  0  0  0  0  0  0  0  0
  2 15  1  0
  3  5  1  0
  5 26  1  0
  7 22  1  0
  8  4  2  0
  8 10  1  0
  8 21  1  0
  9  5  2  0
 10 19  1  0
 10 25  1  0
 11  3  2  0
 13 24  1  0
 14 20  1  0
 14 19  1  0
 16 23  1  0
 17  9  1  0
 18 11  1  0
 19  6  1  0
 22  8  1  0
 23 12  1  0
 23 22  1  0
 24 11  1  0
 24 17  2  0
 25  2  1  0
 25 15  1  0
 26 16  1  0
 26  1  1  0
M  END
$$$$

     RDKit          3D

 25 26  0  0  0  0  0  0  0  0999 V2000
   40.0310   30.2170   49.0840 O   0  0  0  0  0  0  0  0  0  0  0  0
   39.8330   29.3700   51.2840 C   0  0  0  0  0  0  0  0  0  0  0  0
   38.4600   29.6630   54.6310 C   0  0  0  0  0  0  0  0  0  0  0  0
   40.2890   34.0030   61.3790 C   0  0  0  0  0  0  0  0  0  0  0  0
   37.5970   34.3530   60.6430 C   0  0  0  0  0  0  0  0  0  0  0  0
   39.6050   27.8600   50.9120 C   0  0  0  0  0  0  0  0  0  0  0  0
   39.5070   32.8750   61.0010 C   0  0  0  0  0  0  0  0  0  0  0  0
   38.5990   27.6510   53.1680 C   0  0  0  0  0  0  0  0  0  0  0  0
   39.0250   29.8430   56.0060 C   0  0  0  0  0  0  0  0  0  0  0  0
   39.8880   27.4340   49.7510 O   0  0  0  0  0  0  0  0  0  0  0  0
   37.3590   32.0110   60.2970 C   0  0  0  0  0  0  0  0  0  0  0  0
   37.5570   31.1560   59.1280 C   0  0  0  0  0  0  0  0  0  0  0  0
   36.8850   29.9000   59.2690 O   0  0  0  0  0  0  0  0  0  0  0  0
   38.1120   31.2500   57.9180 C   0  0  0  0  0  0  0  0  0  0  0  0
   39.2620   28.7080   53.8690 C   0  0  0  0  0  0  0  0  0  0  0  0
   38.9830   27.1360   51.8660 C   0  0  0  0  0  0  0  0  0  0  0  0
   39.7220   35.2580   61.4180 C   0  0  0  0  0  0  0  0  0  0  0  0
   39.7030   29.7500   52.5100 C   0  0  0  0  0  0  0  0  0  0  0  0
   37.6910   29.6910   57.1740 S   0  0  0  0  0  0  0  0  0  0  0  0
   38.1280   33.0710   60.6270 C   0  0  0  0  0  0  0  0  0  0  0  0
   38.3770   35.4640   61.0810 C   0  0  0  0  0  0  0  0  0  0  0  0
   40.5800   36.4180   61.9370 C   0  0  0  0  0  0  0  0  0  0  0  0
   38.5430   32.4560   57.1900 C   0  0  0  0  0  0  0  0  0  0  0  0
   36.4710   31.6410   61.2560 O   0  0  0  0  0  0  0  0  0  0  0  0
   40.5030   30.3290   50.3730 C   0  0  0  0  0  0  0  0  0  0  0  0
  1 25  1  0
  2 18  2  0
  3  9  1  0
  4 17  1  0
  5 21  1  0
  6  2  1  0
  6 16  1  0
  7  4  2  0
  8 15  1  0
  9 19  1  0
 10  6  2  0
 11 20  1  0
 11 24  1  0
 12 13  1  0
 12 11  1  0
 14 12  2  3
 15  3  1  0
 16  8  1  0
 17 22  1  0
 18 15  1  0
 19 14  1  0
 20  5  2  0
 20  7  1  0
 21 17  2  0
 23 14  1  0
 25  2  1  0
M  END
$$$$

     RDKit          3D

 33 35  0  0  0  0  0  0  0  0999 V2000
   37.8080   37.3510   60.4930 C   0  0  0  0  0  0  0  0  0  0  0  0
   39.8880   30.6690   49.7750 C   0  0  0  0  0  0  0  0  0  0  0  0
   41.2500   34.6230   61.3070 C   0  0  0  0  0  0  0  0  0  0  0  0
   39.6730   28.1670   51.1910 C   0  0  0  0  0  0  0  0  0  0  0  0
   40.0870   26.4560   55.6310 C   0  0  0  0  0  0  0  0  0  0  0  0
   37.1990   37.9140   59.4670 O   0  0  0  0  0  0  0  0  0  0  0  0
   38.4250   26.0080   57.4250 C   0  0  0  0  0  0  0  0  0  0  0  0
   40.5900   27.4480   57.8650 C   0  0  0  0  0  0  0  0  0  0  0  0
   38.3190   34.1340   61.3100 C   0  0  0  0  0  0  0  0  0  0  0  0
   38.7080   28.3740   56.5270 C   0  0  0  0  0  0  0  0  0  0  0  0
   38.0870   35.9750   60.3340 C   0  0  0  0  0  0  0  0  0  0  0  0
   39.3280   30.2760   54.8850 C   0  0  0  0  0  0  0  0  0  0  0  0
   38.8520   28.4280   53.2500 C   0  0  0  0  0  0  0  0  0  0  0  0
   37.1450   33.8630   60.3480 C   0  0  0  0  0  0  0  0  0  0  0  0
   36.9060   30.3450   54.9150 C   0  0  0  0  0  0  0  0  0  0  0  0
   39.7860   33.9490   61.7430 C   0  0  0  0  0  0  0  0  0  0  0  0
   39.8580   27.3490   50.2630 F   0  0  0  0  0  0  0  0  0  0  0  0
   38.3060   37.8830   61.5090 O   0  0  0  0  0  0  0  0  0  0  0  0
   38.1210   31.1390   55.0030 C   0  0  0  0  0  0  0  0  0  0  0  0
   38.3230   32.8720   58.3700 C   0  0  0  0  0  0  0  0  0  0  0  0
   37.3120   32.5610   59.6010 C   0  0  0  0  0  0  0  0  0  0  0  0
   38.5080   32.0450   56.1280 C   0  0  0  0  0  0  0  0  0  0  0  0
   38.2000   35.4980   61.6480 O   0  0  0  0  0  0  0  0  0  0  0  0
   40.7450   29.5630   49.7420 C   0  0  0  0  0  0  0  0  0  0  0  0
   39.9050   32.7780   61.7220 O   0  0  0  0  0  0  0  0  0  0  0  0
   39.5260   29.3250   55.9310 O   0  0  0  0  0  0  0  0  0  0  0  0
   38.9720   27.6960   52.2260 C   0  0  0  0  0  0  0  0  0  0  0  0
   38.0940   31.7360   57.5650 N   0  0  0  0  0  0  0  0  0  0  0  0
   39.3520   29.7260   53.4110 C   0  0  0  0  0  0  0  0  0  0  0  0
   39.9940   30.3980   52.2770 C   0  0  0  0  0  0  0  0  0  0  0  0
   39.4550   27.1080   57.0580 C   0  0  0  0  0  0  0  0  0  0  0  0
   39.9290   29.5560   51.0620 C   0  0  0  0  0  0  0  0  0  0  0  0
   36.9550   35.2100   59.6480 C   0  0  0  0  0  0  0  0  0  0  0  0
  1 18  1  0
  2 32  1  0
  3 16  1  0
  4 17  1  0
  4 27  1  0
  5 31  1  0
  6  1  2  0
  9 23  1  0
  9 16  1  0
 10 31  1  0
 11  1  1  0
 11 23  1  0
 12 19  1  0
 12 26  1  0
 13 29  1  0
 14 21  1  0
 14  9  1  0
 19 15  1  0
 19 22  1  0
 20 21  1  0
 22 28  1  0
 24  2  1  0
 24 32  1  0
 25 16  2  0
 26 10  1  0
 27 13  2  0
 28 20  1  0
 29 12  1  0
 30 29  1  0
 31  7  1  0
 31  8  1  0
 32  4  1  0
 32 30  1  0
 33 11  1  0
 33 14  1  0
M  END
$$$$

     RDKit          3D

 33 38  0  0  0  0  0  0  0  0999 V2000
   39.9330   28.1890   58.2380 N   0  0  0  0  0  0  0  0  0  0  0  0
   39.3690   30.3800   59.3040 C   0  0  0  0  0  0  0  0  0  0  0  0
   38.3120   31.3770   57.4800 C   0  0  0  0  0  0  0  0  0  0  0  0
   39.5140   26.5820   56.8030 O   0  0  0  0  0  0  0  0  0  0  0  0
   38.8990   30.3000   58.0730 C   0  0  0  0  0  0  0  0  0  0  0  0
   39.2890   28.6160   50.6660 C   0  0  0  0  0  0  0  0  0  0  0  0
   41.0360   29.6210   49.9100 O   0  0  0  0  0  0  0  0  0  0  0  0
   40.2250   29.9620   60.0310 O   0  0  0  0  0  0  0  0  0  0  0  0
   38.6710   31.9110   59.9150 C   0  0  0  0  0  0  0  0  0  0  0  0
   40.4670   26.8140   51.7850 C   0  0  0  0  0  0  0  0  0  0  0  0
   40.7360   28.8070   48.7610 C   0  0  0  0  0  0  0  0  0  0  0  0
   40.2290   26.9420   57.8880 C   0  0  0  0  0  0  0  0  0  0  0  0
   38.6950   30.6640   55.1650 C   0  0  0  0  0  0  0  0  0  0  0  0
   37.6460   26.8370   55.7650 C   0  0  0  0  0  0  0  0  0  0  0  0
   37.3070   32.5100   59.6560 C   0  0  0  0  0  0  0  0  0  0  0  0
   39.7440   30.0650   50.4280 C   0  0  0  0  0  0  0  0  0  0  0  0
   38.6520   27.4800   56.2350 C   0  0  0  0  0  0  0  0  0  0  0  0
   38.7000   26.3960   50.1480 F   0  0  0  0  0  0  0  0  0  0  0  0
   38.2420   33.1630   55.8200 C   0  0  0  0  0  0  0  0  0  0  0  0
   40.7540   27.4830   49.3010 C   0  0  0  0  0  0  0  0  0  0  0  0
   40.9690   26.1050   58.4570 N   0  0  0  0  0  0  0  0  0  0  0  0
   37.6190   27.1550   54.2910 C   0  0  0  0  0  0  0  0  0  0  0  0
   37.4710   30.0500   54.7820 C   0  0  0  0  0  0  0  0  0  0  0  0
   37.6670   28.5700   54.0890 C   0  0  0  0  0  0  0  0  0  0  0  0
   39.4680   31.3390   49.2410 C   0  0  0  0  0  0  0  0  0  0  0  0
   38.2160   29.0460   52.7890 C   0  0  0  0  0  0  0  0  0  0  0  0
   39.7860   27.2320   50.4640 C   0  0  0  0  0  0  0  0  0  0  0  0
   38.2590   28.4270   51.5080 C   0  0  0  0  0  0  0  0  0  0  0  0
   39.5480   29.9090   52.7970 C   0  0  0  0  0  0  0  0  0  0  0  0
   39.5660   30.7790   51.6800 C   0  0  0  0  0  0  0  0  0  0  0  0
   38.9210   28.7550   57.5110 C   0  0  0  0  0  0  0  0  0  0  0  0
   38.3710   31.7960   56.0900 C   0  0  0  0  0  0  0  0  0  0  0  0
   38.1910   32.4380   58.7240 C   0  0  0  0  0  0  0  0  0  0  0  0
  2  9  1  0
  2  8  2  0
  3  5  1  0
  3 33  1  0
  4 12  1  0
  5  2  1  0
  6 28  1  0
  7 16  1  0
 11 20  1  0
 11  7  1  0
 12  1  2  0
 12 21  1  0
 13 32  1  0
 14 17  1  0
 15  9  1  0
 16  6  1  0
 16 30  1  0
 17  4  1  0
 17 31  1  0
 18 27  1  0
 19 32  1  0
 20 27  1  0
 22 14  1  0
 23 13  1  0
 24 22  1  0
 24 23  1  0
 25 16  1  0
 26 29  1  0
 26 24  1  0
 27  6  1  0
 27 10  1  0
 28 26  1  0
 30 29  1  0
 31  5  1  0
 31  1  1  0
 32  3  1  0
 33 15  1  0
 33  9  1  0
M  END
$$$$

     RDKit          3D

 35 38  0  0  0  0  0  0  0  0999 V2000
   38.0800   29.8490   54.7100 C   0  0  0  0  0  0  0  0  0  0  0  0
   41.4510   27.8280   49.4970 F   0  0  0  0  0  0  0  0  0  0  0  0
   38.3400   31.6500   57.7790 C   0  0  0  0  0  0  0  0  0  0  0  0
   37.6650   32.7940   54.4790 O   0  0  0  0  0  0  0  0  0  0  0  0
   37.1840   35.1150   59.1660 O   0  0  0  0  0  0  0  0  0  0  0  0
   38.3120   32.8290   58.0730 O   0  0  0  0  0  0  0  0  0  0  0  0
   38.4470   29.2190   57.5940 S   0  0  0  0  0  0  0  0  0  0  0  0
   39.1420   29.9280   53.5360 C   0  0  0  0  0  0  0  0  0  0  0  0
   36.8780   32.5700   60.3140 C   0  0  0  0  0  0  0  0  0  0  0  0
   39.6080   26.3150   53.7270 O   0  0  0  0  0  0  0  0  0  0  0  0
   37.6550   34.7620   59.9300 C   0  0  0  0  0  0  0  0  0  0  0  0
   34.8420   33.1090   61.6130 C   0  0  0  0  0  0  0  0  0  0  0  0
   37.3580   28.1180   54.9950 C   0  0  0  0  0  0  0  0  0  0  0  0
   39.1210   28.6620   52.9300 C   0  0  0  0  0  0  0  0  0  0  0  0
   40.5560   29.5530   48.2290 C   0  0  0  0  0  0  0  0  0  0  0  0
   38.5920   32.6380   55.6310 C   0  0  0  0  0  0  0  0  0  0  0  0
   38.7580   27.5090   54.0100 C   0  0  0  0  0  0  0  0  0  0  0  0
   39.9880   25.7510   54.8950 C   0  0  0  0  0  0  0  0  0  0  0  0
   38.7720   32.4340   49.2780 F   0  0  0  0  0  0  0  0  0  0  0  0
   39.4280   30.6260   50.6500 C   0  0  0  0  0  0  0  0  0  0  0  0
   36.2030   33.3890   61.3370 C   0  0  0  0  0  0  0  0  0  0  0  0
   37.0010   29.5650   54.5380 C   0  0  0  0  0  0  0  0  0  0  0  0
   39.8230   30.7570   48.2580 C   0  0  0  0  0  0  0  0  0  0  0  0
   37.0540   34.8740   61.2920 C   0  0  0  0  0  0  0  0  0  0  0  0
   38.5870   30.1620   56.1950 C   0  0  0  0  0  0  0  0  0  0  0  0
   39.9230   29.2730   50.6660 C   0  0  0  0  0  0  0  0  0  0  0  0
   38.1460   33.1020   59.6250 C   0  0  0  0  0  0  0  0  0  0  0  0
   38.3190   31.4390   56.3780 C   0  0  0  0  0  0  0  0  0  0  0  0
   39.7010   28.4080   51.7530 N   0  0  0  0  0  0  0  0  0  0  0  0
   40.6100   28.9540   49.5130 C   0  0  0  0  0  0  0  0  0  0  0  0
   39.3710   31.2650   49.4610 C   0  0  0  0  0  0  0  0  0  0  0  0
   39.3840   33.0170   60.3510 O   0  0  0  0  0  0  0  0  0  0  0  0
   38.5320   30.5040   59.9210 O   0  0  0  0  0  0  0  0  0  0  0  0
   36.2650   31.1840   59.8970 O   0  0  0  0  0  0  0  0  0  0  0  0
   38.4380   30.5820   58.5900 C   0  0  0  0  0  0  0  0  0  0  0  0
  1  8  1  0
  1 25  1  0
  2 30  1  0
  3  6  1  0
  3 35  1  0
  4 16  1  0
  6 27  1  0
  7 35  1  0
  9 34  1  0
  9 21  1  0
 10 18  1  0
 11  5  1  0
 11 24  1  0
 14 29  1  0
 14  8  1  0
 14 17  1  0
 15 23  2  0
 15 30  1  0
 16 28  1  0
 17 10  1  0
 17 13  1  0
 19 31  1  0
 20 26  1  0
 21 12  1  0
 22  1  1  0
 22 13  1  0
 23 31  1  0
 24 21  1  0
 25 28  1  0
 25  7  1  0
 26 29  1  0
 27 11  1  0
 27  9  1  0
 27 32  1  0
 28  3  2  0
 30 26  2  0
 31 20  2  0
 35 33  2  0
M  END
$$$$

     RDKit          3D

 15 15  0  0  0  0  0  0  0  0999 V2000
   38.0700   32.5570   54.7780 C   0  0  0  0  0  0  0  0  0  0  0  0
   39.8150   33.6020   62.5630 C   0  0  0  0  0  0  0  0  0  0  0  0
   40.5640   35.3520   60.9130 C   0  0  0  0  0  0  0  0  0  0  0  0
   38.2430   33.6470   59.2820 C   0  0  0  0  0  0  0  0  0  0  0  0
   38.4640   32.6050   58.2400 N   0  0  0  0  0  0  0  0  0  0  0  0
   38.8480   32.7380   56.9990 C   0  0  0  0  0  0  0  0  0  0  0  0
   37.2850   35.2530   52.3230 C   0  0  0  0  0  0  0  0  0  0  0  0
   41.3040   33.0600   62.6150 C   0  0  0  0  0  0  0  0  0  0  0  0
   37.6800   34.7220   58.6890 O   0  0  0  0  0  0  0  0  0  0  0  0
   38.4820   33.7940   60.6000 N   0  0  0  0  0  0  0  0  0  0  0  0
   38.3740   34.1070   54.8370 C   0  0  0  0  0  0  0  0  0  0  0  0
   39.5290   34.2720   61.2740 C   0  0  0  0  0  0  0  0  0  0  0  0
   37.5840   35.2180   53.8870 C   0  0  0  0  0  0  0  0  0  0  0  0
   36.1280   35.3990   53.3170 C   0  0  0  0  0  0  0  0  0  0  0  0
   38.8780   32.6300   55.8020 C   0  0  0  0  0  0  0  0  0  0  0  0
  1 11  1  0
  1 15  1  0
  2  8  1  0
  4 10  1  0
  5  4  1  0
  6  5  1  0
  7 14  1  0
  7 13  1  0
  9  4  2  0
 10 12  1  0
 12  3  1  0
 12  2  1  0
 13 11  1  0
 14 13  1  0
 15  6  1  0
M  END
$$$$

     RDKit          3D

 31 33  0  0  0  0  0  0  0  0999 V2000
   38.4120   29.6510   57.8670 C   0  0  0  0  0  0  0  0  0  0  0  0
   38.3830   28.8480   59.0510 O   0  0  0  0  0  0  0  0  0  0  0  0
   39.1590   27.4340   53.2690 C   0  0  0  0  0  0  0  0  0  0  0  0
   40.1170   28.9890   50.0490 C   0  0  0  0  0  0  0  0  0  0  0  0
   38.3720   31.1890   58.2150 C   0  0  0  0  0  0  0  0  0  0  0  0
   39.6510   28.9760   51.3850 O   0  0  0  0  0  0  0  0  0  0  0  0
   39.0810   27.6170   51.8290 C   0  0  0  0  0  0  0  0  0  0  0  0
   36.5550   37.8880   60.2710 O   0  0  0  0  0  0  0  0  0  0  0  0
   38.9400   26.2700   54.2240 O   0  0  0  0  0  0  0  0  0  0  0  0
   40.4520   28.2640   56.7090 C   0  0  0  0  0  0  0  0  0  0  0  0
   37.5070   31.1330   59.5180 C   0  0  0  0  0  0  0  0  0  0  0  0
   37.0770   33.3630   61.4320 C   0  0  0  0  0  0  0  0  0  0  0  0
   39.5090   34.8190   60.6890 S   0  0  0  0  0  0  0  0  0  0  0  0
   39.1970   31.9720   48.9680 O   0  0  0  0  0  0  0  0  0  0  0  0
   37.1360   36.8210   60.0030 C   0  0  0  0  0  0  0  0  0  0  0  0
   37.2330   29.7640   59.8110 O   0  0  0  0  0  0  0  0  0  0  0  0
   37.8320   31.9020   57.1050 O   0  0  0  0  0  0  0  0  0  0  0  0
   38.3400   28.5980   53.7780 C   0  0  0  0  0  0  0  0  0  0  0  0
   36.7450   34.7220   61.3370 C   0  0  0  0  0  0  0  0  0  0  0  0
   38.9710   30.3950   55.2970 C   0  0  0  0  0  0  0  0  0  0  0  0
   36.8880   36.3920   58.9800 O   0  0  0  0  0  0  0  0  0  0  0  0
   37.6440   25.9000   54.7870 C   0  0  0  0  0  0  0  0  0  0  0  0
   38.3220   29.0380   55.2320 C   0  0  0  0  0  0  0  0  0  0  0  0
   37.9350   35.7570   60.9580 C   0  0  0  0  0  0  0  0  0  0  0  0
   37.0240   32.2910   60.2650 C   0  0  0  0  0  0  0  0  0  0  0  0
   39.7460   30.5230   53.9400 C   0  0  0  0  0  0  0  0  0  0  0  0
   39.0210   29.4020   56.5290 C   0  0  0  0  0  0  0  0  0  0  0  0
   40.6710   30.3680   49.7680 C   0  0  0  0  0  0  0  0  0  0  0  0
   39.6060   31.2140   50.1070 C   0  0  0  0  0  0  0  0  0  0  0  0
   38.1000   31.6180   55.7850 C   0  0  0  0  0  0  0  0  0  0  0  0
   37.7630   32.6640   54.8330 C   0  0  0  0  0  0  0  0  0  0  0  0
  1  5  1  0
  1  2  1  0
  2 16  1  0
  3  7  1  0
  3 18  1  0
  3  9  1  0
  4  6  1  0
  5 17  1  0
  5 11  1  0
  6  7  1  0
  9 22  1  0
 11 16  1  0
 11 25  1  0
 14 29  1  0
 15  8  1  0
 15 24  1  0
 19 12  1  0
 20 26  1  0
 20 30  1  0
 20 27  1  0
 21 15  2  0
 23 18  1  0
 23 20  1  0
 23 27  1  0
 24 13  1  0
 24 19  1  0
 25 12  1  0
 27 10  1  0
 27  1  1  0
 28  4  1  0
 28 29  1  0
 30 31  1  0
 30 17  1  0
M  END
$$$$

     RDKit          3D

 35 39  0  0  0  0  0  0  0  0999 V2000
   38.3990   33.4500   57.5890 C   0  0  0  0  0  0  0  0  0  0  0  0
   37.5640   26.1330   55.2980 C   0  0  0  0  0  0  0  0  0  0  0  0
   39.7880   30.6910   51.1900 C   0  0  0  0  0  0  0  0  0  0  0  0
   38.4510   32.0210   57.5420 C   0  0  0  0  0  0  0  0  0  0  0  0
   39.4530   28.0840   53.0140 C   0  0  0  0  0  0  0  0  0  0  0  0
   37.8110   37.9830   61.0580 C   0  0  0  0  0  0  0  0  0  0  0  0
   39.2860   34.1400   59.7440 C   0  0  0  0  0  0  0  0  0  0  0  0
   37.2270   34.0420   57.9520 N   0  0  0  0  0  0  0  0  0  0  0  0
   39.7030   30.6440   48.4210 N   0  0  0  0  0  0  0  0  0  0  0  0
   39.7050   25.6980   57.1610 C   0  0  0  0  0  0  0  0  0  0  0  0
   36.9550   34.4980   59.3460 C   0  0  0  0  0  0  0  0  0  0  0  0
   37.4870   31.5580   56.5740 N   0  0  0  0  0  0  0  0  0  0  0  0
   39.3610   29.4260   53.2510 C   0  0  0  0  0  0  0  0  0  0  0  0
   39.5340   27.0150   54.0390 C   0  0  0  0  0  0  0  0  0  0  0  0
   38.0090   33.7300   60.1880 C   0  0  0  0  0  0  0  0  0  0  0  0
   38.3190   28.5880   55.1600 C   0  0  0  0  0  0  0  0  0  0  0  0
   37.1260   36.0560   59.5290 C   0  0  0  0  0  0  0  0  0  0  0  0
   40.5130   29.8990   49.0790 C   0  0  0  0  0  0  0  0  0  0  0  0
   37.7580   32.3690   60.1430 O   0  0  0  0  0  0  0  0  0  0  0  0
   37.5060   30.3750   56.1580 C   0  0  0  0  0  0  0  0  0  0  0  0
   38.0260   24.7200   55.5930 C   0  0  0  0  0  0  0  0  0  0  0  0
   38.6730   24.7060   57.0970 C   0  0  0  0  0  0  0  0  0  0  0  0
   38.6720   27.2150   55.2240 C   0  0  0  0  0  0  0  0  0  0  0  0
   37.1910   29.2370   55.8590 O   0  0  0  0  0  0  0  0  0  0  0  0
   39.4300   27.1720   56.5540 C   0  0  0  0  0  0  0  0  0  0  0  0
   38.0930   36.6600   60.3490 C   0  0  0  0  0  0  0  0  0  0  0  0
   36.0380   36.7510   59.1990 O   0  0  0  0  0  0  0  0  0  0  0  0
   40.0640   28.3020   50.6060 C   0  0  0  0  0  0  0  0  0  0  0  0
   39.0780   35.8610   61.0930 N   0  0  0  0  0  0  0  0  0  0  0  0
   39.0570   29.5400   54.5990 O   0  0  0  0  0  0  0  0  0  0  0  0
   40.5220   35.8340   61.3900 C   0  0  0  0  0  0  0  0  0  0  0  0
   38.8970   34.3490   61.1520 C   0  0  0  0  0  0  0  0  0  0  0  0
   39.6660   27.5840   51.6590 C   0  0  0  0  0  0  0  0  0  0  0  0
   39.4880   30.6330   52.5140 C   0  0  0  0  0  0  0  0  0  0  0  0
   40.1480   29.6500   50.3700 C   0  0  0  0  0  0  0  0  0  0  0  0
  1  8  1  0
  2 21  1  0
  3 34  1  0
  4  1  1  0
  5 13  2  0
  5 14  1  0
  7 15  1  0
  9 18  1  0
 11  8  1  0
 11 17  1  0
 11 15  1  0
 12  4  1  0
 13 30  1  0
 14 23  1  0
 15 19  1  0
 15 32  1  0
 16 23  1  0
 16 24  1  0
 17 27  1  0
 17 26  1  0
 18 35  1  0
 20 12  1  0
 21 22  1  0
 22 10  1  0
 23  2  1  0
 23 25  1  0
 24 20  1  0
 25 10  1  0
 26  6  1  0
 26 29  1  0
 28 33  2  0
 29 32  1  0
 29 31  1  0
 30 16  1  0
 32  7  1  0
 33  5  1  0
 34 13  1  0
 35 28  1  0
 35  3  2  0
M  END
$$$$

     RDKit          3D

 18 19  0  0  0  0  0  0  0  0999 V2000
   38.6440   31.5630   59.2210 C   0  0  0  0  0  0  0  0  0  0  0  0
   37.6040   36.2000   60.3390 C   0  0  0  0  0  0  0  0  0  0  0  0
   36.0920   34.2200   60.1880 C   0  0  0  0  0  0  0  0  0  0  0  0
   37.9230   28.7450   58.5030 C   0  0  0  0  0  0  0  0  0  0  0  0
   38.2150   30.5930   56.8750 C   0  0  0  0  0  0  0  0  0  0  0  0
   38.6260   34.0940   58.7860 S   0  0  0  0  0  0  0  0  0  0  0  0
   39.0220   33.3420   61.0810 C   0  0  0  0  0  0  0  0  0  0  0  0
   38.5520   36.5510   61.2000 N   0  0  0  0  0  0  0  0  0  0  0  0
   38.3580   33.4460   55.9480 C   0  0  0  0  0  0  0  0  0  0  0  0
   38.3600   37.7240   61.6570 C   0  0  0  0  0  0  0  0  0  0  0  0
   37.2820   38.0510   61.0500 N   0  0  0  0  0  0  0  0  0  0  0  0
   36.8630   37.1950   60.2110 N   0  0  0  0  0  0  0  0  0  0  0  0
   38.5400   32.4590   58.1770 N   0  0  0  0  0  0  0  0  0  0  0  0
   38.3160   32.0350   56.6790 C   0  0  0  0  0  0  0  0  0  0  0  0
   39.3120   31.8700   60.5890 C   0  0  0  0  0  0  0  0  0  0  0  0
   37.2770   29.8340   57.7830 C   0  0  0  0  0  0  0  0  0  0  0  0
   39.4860   34.3110   60.2070 O   0  0  0  0  0  0  0  0  0  0  0  0
   37.2880   34.9580   59.4500 C   0  0  0  0  0  0  0  0  0  0  0  0
  1 15  1  0
  2  8  2  0
  5 16  1  0
  6 18  1  0
  6 17  1  0
  8 10  1  0
 11 10  2  0
 12  2  1  0
 12 11  1  0
 13  6  1  0
 13  1  1  0
 14  9  1  0
 14  5  1  0
 14 13  1  0
 15  7  1  0
 16  4  1  0
 17  7  1  0
 18  3  1  0
 18  2  1  0
M  END
$$$$

     RDKit          3D

 13 12  0  0  0  0  0  0  0  0999 V2000
   39.3300   30.0760   56.3850 C   0  0  0  0  0  0  0  0  0  0  0  0
   38.5050   32.3830   56.9540 C   0  0  0  0  0  0  0  0  0  0  0  0
   40.2170   30.2230   50.4350 C   0  0  0  0  0  0  0  0  0  0  0  0
   38.4440   30.8540   57.2420 C   0  0  0  0  0  0  0  0  0  0  0  0
   37.4040   29.9480   54.6100 C   0  0  0  0  0  0  0  0  0  0  0  0
   38.9050   30.3140   54.7390 C   0  0  0  0  0  0  0  0  0  0  0  0
   39.6910   29.4310   51.5530 C   0  0  0  0  0  0  0  0  0  0  0  0
   39.4030   30.3450   52.8720 C   0  0  0  0  0  0  0  0  0  0  0  0
   38.2110   33.2240   58.2540 C   0  0  0  0  0  0  0  0  0  0  0  0
   37.4770   34.2870   59.0400 C   0  0  0  0  0  0  0  0  0  0  0  0
   36.8180   36.5970   59.5530 N   0  0  0  0  0  0  0  0  0  0  0  0
   39.5260   27.8310   51.1750 C   0  0  0  0  0  0  0  0  0  0  0  0
   37.6290   35.4900   59.9390 C   0  0  0  0  0  0  0  0  0  0  0  0
  1  4  1  0
  2  4  1  0
  2  9  1  0
  3  7  1  0
  6  5  1  0
  6  1  1  0
  7  8  2  3
  8  6  1  0
  9 10  1  0
 10 13  1  0
 11 13  1  0
 12  7  1  0
M  END
$$$$

     RDKit          3D

 37 42  0  0  0  0  0  0  0  0999 V2000
   38.8690   29.6490   54.7970 C   0  0  0  0  0  0  0  0  0  0  0  0
   38.2810   26.0510   53.8610 C   0  0  0  0  0  0  0  0  0  0  0  0
   39.7610   27.7440   55.6700 C   0  0  0  0  0  0  0  0  0  0  0  0
   40.4430   34.3320   61.9260 C   0  0  0  0  0  0  0  0  0  0  0  0
   38.2580   31.7940   55.7390 C   0  0  0  0  0  0  0  0  0  0  0  0
   39.0940   28.0740   51.6500 C   0  0  0  0  0  0  0  0  0  0  0  0
   38.7630   27.2240   54.6550 C   0  0  0  0  0  0  0  0  0  0  0  0
   38.3610   31.0880   54.5590 C   0  0  0  0  0  0  0  0  0  0  0  0
   40.0720   28.8480   49.6280 C   0  0  0  0  0  0  0  0  0  0  0  0
   39.6150   35.4350   61.6100 C   0  0  0  0  0  0  0  0  0  0  0  0
   37.0780   33.8750   59.7700 C   0  0  0  0  0  0  0  0  0  0  0  0
   40.0880   33.0290   61.5020 C   0  0  0  0  0  0  0  0  0  0  0  0
   39.4310   29.4250   52.3600 C   0  0  0  0  0  0  0  0  0  0  0  0
   38.6200   32.1680   57.0150 C   0  0  0  0  0  0  0  0  0  0  0  0
   38.4710   35.1640   60.8030 C   0  0  0  0  0  0  0  0  0  0  0  0
   39.8850   30.4130   51.4630 C   0  0  0  0  0  0  0  0  0  0  0  0
   38.8120   28.5020   52.8040 N   0  0  0  0  0  0  0  0  0  0  0  0
   38.1960   30.0100   58.3180 N   0  0  0  0  0  0  0  0  0  0  0  0
   40.5760   30.9670   49.2350 F   0  0  0  0  0  0  0  0  0  0  0  0
   39.4310   29.1640   56.1150 C   0  0  0  0  0  0  0  0  0  0  0  0
   40.1210   30.0710   50.1570 C   0  0  0  0  0  0  0  0  0  0  0  0
   37.3420   37.3440   60.4760 C   0  0  0  0  0  0  0  0  0  0  0  0
   40.3750   28.6410   48.3740 F   0  0  0  0  0  0  0  0  0  0  0  0
   38.2010   29.5700   59.5040 C   0  0  0  0  0  0  0  0  0  0  0  0
   38.8740   32.7300   60.8570 C   0  0  0  0  0  0  0  0  0  0  0  0
   38.2190   28.5450   53.9920 C   0  0  0  0  0  0  0  0  0  0  0  0
   39.6090   27.7580   50.4160 C   0  0  0  0  0  0  0  0  0  0  0  0
   38.3360   31.0710   60.7530 S   0  0  0  0  0  0  0  0  0  0  0  0
   37.5030   35.9440   60.3400 C   0  0  0  0  0  0  0  0  0  0  0  0
   36.6190   35.1190   59.7070 C   0  0  0  0  0  0  0  0  0  0  0  0
   38.8750   31.3170   58.1730 C   0  0  0  0  0  0  0  0  0  0  0  0
   39.8960   36.6650   62.0000 O   0  0  0  0  0  0  0  0  0  0  0  0
   38.2330   33.7990   60.4730 N   0  0  0  0  0  0  0  0  0  0  0  0
   38.3640   29.0220   57.1970 C   0  0  0  0  0  0  0  0  0  0  0  0
   39.4890   25.2100   53.4980 C   0  0  0  0  0  0  0  0  0  0  0  0
   39.9620   37.7620   62.5060 C   0  0  0  0  0  0  0  0  0  0  0  0
   37.1280   37.7510   59.0370 O   0  0  0  0  0  0  0  0  0  0  0  0
  1  8  1  0
  1 20  1  0
  5 14  1  0
  6 13  1  0
  6 17  1  0
  7  2  1  0
  7  3  1  0
  8  5  1  0
  9 21  2  0
  9 27  1  0
 10  4  2  0
 10 32  1  0
 11 33  1  0
 12  4  1  0
 13 17  1  0
 14 31  1  0
 15 10  1  0
 16 13  2  0
 18 24  1  0
 19 21  1  0
 20  3  1  0
 20 34  1  0
 21 16  1  0
 23  9  1  0
 24 28  1  0
 25 12  2  0
 26 17  1  0
 26  7  1  0
 26  1  1  0
 27  6  2  0
 28 25  1  0
 29 22  1  0
 29 15  2  0
 30 11  2  0
 30 29  1  0
 31 18  1  0
 32 36  1  0
 33 15  1  0
 33 25  1  0
 34 18  1  0
 35  2  1  0
 37 22  1  0
M  END
$$$$

     RDKit          3D

 33 35  0  0  0  0  0  0  0  0999 V2000
   39.9230   30.7760   52.0910 O   0  0  0  0  0  0  0  0  0  0  0  0
   37.7790   28.7550   57.2050 C   0  0  0  0  0  0  0  0  0  0  0  0
   39.3400   26.5670   50.9880 C   0  0  0  0  0  0  0  0  0  0  0  0
   38.6730   30.1030   55.3920 C   0  0  0  0  0  0  0  0  0  0  0  0
   38.6440   33.1770   59.5540 C   0  0  0  0  0  0  0  0  0  0  0  0
   37.6070   30.4370   57.7080 S   0  0  0  0  0  0  0  0  0  0  0  0
   38.7000   31.8180   60.0070 O   0  0  0  0  0  0  0  0  0  0  0  0
   38.5300   28.6480   55.9190 C   0  0  0  0  0  0  0  0  0  0  0  0
   37.0270   37.4660   59.9520 N   0  0  0  0  0  0  0  0  0  0  0  0
   39.8170   28.9280   50.1990 C   0  0  0  0  0  0  0  0  0  0  0  0
   37.9440   33.4780   58.5100 N   0  0  0  0  0  0  0  0  0  0  0  0
   39.6980   29.9820   52.9470 C   0  0  0  0  0  0  0  0  0  0  0  0
   40.1610   28.4350   48.9360 O   0  0  0  0  0  0  0  0  0  0  0  0
   39.9520   30.3260   54.3880 C   0  0  0  0  0  0  0  0  0  0  0  0
   38.9050   32.6710   56.2740 C   0  0  0  0  0  0  0  0  0  0  0  0
   36.8220   35.6980   61.7280 C   0  0  0  0  0  0  0  0  0  0  0  0
   39.3710   30.5870   48.8210 O   0  0  0  0  0  0  0  0  0  0  0  0
   38.4290   33.5870   57.2200 C   0  0  0  0  0  0  0  0  0  0  0  0
   36.8790   37.1180   61.0920 C   0  0  0  0  0  0  0  0  0  0  0  0
   38.8990   31.0760   56.4740 C   0  0  0  0  0  0  0  0  0  0  0  0
   37.2640   30.4500   54.6680 C   0  0  0  0  0  0  0  0  0  0  0  0
   37.8930   34.5360   61.4740 C   0  0  0  0  0  0  0  0  0  0  0  0
   39.4340   28.0610   51.2490 C   0  0  0  0  0  0  0  0  0  0  0  0
   39.1610   34.1690   60.6140 C   0  0  0  0  0  0  0  0  0  0  0  0
   36.4890   34.3720   61.0040 C   0  0  0  0  0  0  0  0  0  0  0  0
   39.7030   29.5260   49.1980 N   0  0  0  0  0  0  0  0  0  0  0  0
   39.3560   25.7310   52.0170 N   0  0  0  0  0  0  0  0  0  0  0  0
   37.4350   38.2110   61.8110 C   0  0  0  0  0  0  0  0  0  0  0  0
   37.6370   39.2150   61.0410 O   0  0  0  0  0  0  0  0  0  0  0  0
   36.4420   36.5050   59.3730 O   0  0  0  0  0  0  0  0  0  0  0  0
   39.2750   26.1330   49.6140 C   0  0  0  0  0  0  0  0  0  0  0  0
   39.3050   28.5800   52.5890 C   0  0  0  0  0  0  0  0  0  0  0  0
   40.3320   35.5170   61.0230 Cl  0  0  0  0  0  0  0  0  0  0  0  0
  1 12  2  0
  2  6  1  0
  3 23  1  0
  3 27  2  0
  4 21  1  0
  4  8  1  0
  4 20  1  0
  5  7  2  0
  5 24  1  0
  8  2  1  0
  9 19  1  0
 10 23  1  0
 11  5  1  0
 12 14  1  0
 13 26  1  0
 13 10  1  0
 14  4  1  0
 15 18  2  3
 16 19  1  0
 17 26  1  0
 18 11  1  0
 19 28  1  0
 20 15  1  0
 20  6  1  0
 22 24  1  0
 22 16  1  0
 23 32  2  3
 24 33  1  0
 25 22  1  0
 25 16  1  0
 26 10  1  0
 29 28  1  0
 30  9  1  0
 31  3  1  0
 32 12  1  0
M  END
$$$$

     RDKit          3D

 33 33  0  0  0  0  0  0  0  0999 V2000
   37.6120   28.8700   55.2200 C   0  0  0  0  0  0  0  0  0  0  0  0
   38.2960   29.1160   57.5930 C   0  0  0  0  0  0  0  0  0  0  0  0
   39.5920   34.0320   61.9330 C   0  0  0  0  0  0  0  0  0  0  0  0
   38.2920   31.3320   58.2570 C   0  0  0  0  0  0  0  0  0  0  0  0
   39.8600   30.2670   52.3350 C   0  0  0  0  0  0  0  0  0  0  0  0
   37.4930   38.5250   61.4260 C   0  0  0  0  0  0  0  0  0  0  0  0
   39.4000   26.6920   53.6910 O   0  0  0  0  0  0  0  0  0  0  0  0
   37.6350   33.3820   60.3700 C   0  0  0  0  0  0  0  0  0  0  0  0
   36.8180   37.8570   60.3860 N   0  0  0  0  0  0  0  0  0  0  0  0
   38.9200   27.9660   51.8420 C   0  0  0  0  0  0  0  0  0  0  0  0
   40.1390   29.0800   49.9780 C   0  0  0  0  0  0  0  0  0  0  0  0
   40.4290   27.7110   57.0930 C   0  0  0  0  0  0  0  0  0  0  0  0
   40.2790   28.3200   59.5640 C   0  0  0  0  0  0  0  0  0  0  0  0
   38.3590   26.8700   52.7640 C   0  0  0  0  0  0  0  0  0  0  0  0
   38.5920   36.5480   61.9830 N   0  0  0  0  0  0  0  0  0  0  0  0
   38.2120   34.6010   61.0250 C   0  0  0  0  0  0  0  0  0  0  0  0
   37.3520   33.3260   59.0960 N   0  0  0  0  0  0  0  0  0  0  0  0
   39.0100   30.6600   59.2860 O   0  0  0  0  0  0  0  0  0  0  0  0
   38.5370   37.8540   62.0920 C   0  0  0  0  0  0  0  0  0  0  0  0
   37.9890   28.2030   56.3930 C   0  0  0  0  0  0  0  0  0  0  0  0
   40.8630   28.3930   48.6860 O   0  0  0  0  0  0  0  0  0  0  0  0
   38.4470   32.8490   58.3400 C   0  0  0  0  0  0  0  0  0  0  0  0
   39.4250   28.4740   58.1570 C   0  0  0  0  0  0  0  0  0  0  0  0
   38.0400   27.7170   49.7160 O   0  0  0  0  0  0  0  0  0  0  0  0
   39.0530   29.2400   52.7020 C   0  0  0  0  0  0  0  0  0  0  0  0
   39.5660   31.6020   52.3870 C   0  0  0  0  0  0  0  0  0  0  0  0
   39.1970   27.9970   50.5660 C   0  0  0  0  0  0  0  0  0  0  0  0
   37.1330   36.5520   60.1440 C   0  0  0  0  0  0  0  0  0  0  0  0
   38.3910   30.5440   57.0490 C   0  0  0  0  0  0  0  0  0  0  0  0
   38.0270   35.8580   61.0840 C   0  0  0  0  0  0  0  0  0  0  0  0
   36.5650   36.0380   59.0500 N   0  0  0  0  0  0  0  0  0  0  0  0
   38.5240   29.2700   54.0260 C   0  0  0  0  0  0  0  0  0  0  0  0
   38.4390   33.4570   56.9330 C   0  0  0  0  0  0  0  0  0  0  0  0
  1 20  1  0
  2 20  1  0
  2 23  1  0
  4 22  1  0
  4 18  1  0
  5 26  2  0
  5 25  1  0
  6 19  1  0
  8 16  1  0
  9  6  2  0
 10 25  1  0
 10 14  1  0
 11 27  1  0
 12 23  1  0
 14  7  1  0
 15 19  2  0
 16 30  1  0
 16  3  1  0
 17  8  1  0
 21 11  1  0
 22 33  1  0
 22 17  1  0
 23 13  1  0
 25 32  2  0
 27 24  1  0
 27 10  1  0
 28  9  1  0
 28 30  2  0
 29  2  1  0
 29  4  1  0
 30 15  1  0
 31 28  1  0
 32  1  2  0
M  END
$$$$

     RDKit          3D

 35 37  0  0  0  0  0  0  0  0999 V2000
   39.4360   28.3770   49.8480 C   0  0  0  0  0  0  0  0  0  0  0  0
   37.2080   30.9830   55.3750 O   0  0  0  0  0  0  0  0  0  0  0  0
   38.3340   26.8940   57.0010 C   0  0  0  0  0  0  0  0  0  0  0  0
   37.8570   27.5350   54.6380 C   0  0  0  0  0  0  0  0  0  0  0  0
   38.7340   30.8200   57.4210 C   0  0  0  0  0  0  0  0  0  0  0  0
   37.1510   31.9280   61.8410 O   0  0  0  0  0  0  0  0  0  0  0  0
   39.4840   29.5630   52.8700 C   0  0  0  0  0  0  0  0  0  0  0  0
   38.0290   31.7220   58.4140 C   0  0  0  0  0  0  0  0  0  0  0  0
   37.7980   28.3190   57.3140 C   0  0  0  0  0  0  0  0  0  0  0  0
   37.4000   34.1790   58.7930 C   0  0  0  0  0  0  0  0  0  0  0  0
   39.0610   27.9290   51.1040 C   0  0  0  0  0  0  0  0  0  0  0  0
   36.6810   31.5480   60.5270 C   0  0  0  0  0  0  0  0  0  0  0  0
   38.6290   27.1900   53.3420 C   0  0  0  0  0  0  0  0  0  0  0  0
   38.4160   34.8630   59.7790 C   0  0  0  0  0  0  0  0  0  0  0  0
   37.7870   33.0690   57.9300 N   0  0  0  0  0  0  0  0  0  0  0  0
   37.9350   31.2600   59.8450 C   0  0  0  0  0  0  0  0  0  0  0  0
   39.0820   28.2850   52.4410 C   0  0  0  0  0  0  0  0  0  0  0  0
   40.5630   29.8250   48.4000 F   0  0  0  0  0  0  0  0  0  0  0  0
   37.5210   38.5500   60.3310 O   0  0  0  0  0  0  0  0  0  0  0  0
   38.9360   33.3850   57.1140 C   0  0  0  0  0  0  0  0  0  0  0  0
   36.7050   35.1360   62.0450 O   0  0  0  0  0  0  0  0  0  0  0  0
   37.2830   37.5340   59.5890 C   0  0  0  0  0  0  0  0  0  0  0  0
   40.0900   29.5690   49.6690 C   0  0  0  0  0  0  0  0  0  0  0  0
   37.8190   33.5360   55.0530 O   0  0  0  0  0  0  0  0  0  0  0  0
   36.7060   37.6870   58.3720 N   0  0  0  0  0  0  0  0  0  0  0  0
   36.3860   35.5000   60.6730 C   0  0  0  0  0  0  0  0  0  0  0  0
   38.9220   29.3310   57.6050 C   0  0  0  0  0  0  0  0  0  0  0  0
   40.0340   30.4870   51.9960 C   0  0  0  0  0  0  0  0  0  0  0  0
   35.7450   34.9970   59.1420 S   0  0  0  0  0  0  0  0  0  0  0  0
   38.4550   31.2400   55.9730 C   0  0  0  0  0  0  0  0  0  0  0  0
   40.0620   26.1630   53.7620 Cl  0  0  0  0  0  0  0  0  0  0  0  0
   38.7660   32.7420   55.7780 C   0  0  0  0  0  0  0  0  0  0  0  0
   37.8710   26.3780   55.6260 C   0  0  0  0  0  0  0  0  0  0  0  0
   37.6850   36.1360   60.1850 C   0  0  0  0  0  0  0  0  0  0  0  0
   40.3290   30.4230   50.6570 C   0  0  0  0  0  0  0  0  0  0  0  0
  1 11  1  0
  3  9  1  0
  4 33  1  0
  5 27  1  0
  5  8  1  0
  8 16  1  0
  9 27  1  0
 10 29  1  0
 10 14  1  0
 11 17  1  0
 12  6  1  0
 13 31  1  0
 13  4  1  0
 14 34  1  0
 15 20  1  0
 15  8  1  0
 15 10  1  0
 16 12  1  0
 17  7  2  0
 17 13  1  0
 18 23  1  0
 22 19  2  0
 23  1  2  0
 23 35  1  0
 25 22  1  0
 26 21  2  0
 28  7  1  0
 29 26  1  0
 30  2  1  0
 30  5  1  0
 32 24  1  0
 32 30  1  0
 32 20  1  0
 33  3  1  0
 34 22  1  0
 34 26  1  0
 35 28  2  0
M  END
$$$$

     RDKit          3D

 14 14  0  0  0  0  0  0  0  0999 V2000
   38.0430   34.8230   60.1720 C   0  0  0  0  0  0  0  0  0  0  0  0
   38.7550   28.7220   53.4510 C   0  0  0  0  0  0  0  0  0  0  0  0
   37.6930   33.7160   59.1170 C   0  0  0  0  0  0  0  0  0  0  0  0
   38.7460   30.6190   55.8230 C   0  0  0  0  0  0  0  0  0  0  0  0
   40.0410   30.5970   51.8800 S   0  0  0  0  0  0  0  0  0  0  0  0
   37.4000   29.7460   55.5960 C   0  0  0  0  0  0  0  0  0  0  0  0
   38.7650   33.0520   58.3700 C   0  0  0  0  0  0  0  0  0  0  0  0
   39.5940   30.0370   53.4240 C   0  0  0  0  0  0  0  0  0  0  0  0
   38.3670   31.9920   56.9510 S   0  0  0  0  0  0  0  0  0  0  0  0
   38.9240   34.4210   61.2090 O   0  0  0  0  0  0  0  0  0  0  0  0
   39.1360   31.0510   54.4840 C   0  0  0  0  0  0  0  0  0  0  0  0
   37.1010   36.0920   60.2000 C   0  0  0  0  0  0  0  0  0  0  0  0
   37.5190   28.8080   54.4300 C   0  0  0  0  0  0  0  0  0  0  0  0
   40.4030   29.7140   50.3570 C   0  0  0  0  0  0  0  0  0  0  0  0
  1 12  1  0
  1 10  1  0
  2 13  1  0
  3  1  1  0
  4  9  1  0
  6  4  1  0
  7  3  2  3
  8  5  1  0
  8  2  1  0
  8 11  1  0
  9  7  1  0
 11  4  1  0
 13  6  1  0
 14  5  1  0
M  END
$$$$

     RDKit          3D

  9  8  0  0  0  0  0  0  0  0999 V2000
   37.1390   30.0080   55.4420 C   0  0  0  0  0  0  0  0  0  0  0  0
   37.3270   37.3780   59.1010 O   0  0  0  0  0  0  0  0  0  0  0  0
   36.6940   35.2660   59.9610 C   0  0  0  0  0  0  0  0  0  0  0  0
   38.6940   32.9650   58.0490 C   0  0  0  0  0  0  0  0  0  0  0  0
   37.8010   34.7140   59.4470 O   0  0  0  0  0  0  0  0  0  0  0  0
   36.9260   36.7500   60.2570 C   0  0  0  0  0  0  0  0  0  0  0  0
   37.4740   33.6810   58.4780 C   0  0  0  0  0  0  0  0  0  0  0  0
   38.1180   30.6040   56.6220 S   0  0  0  0  0  0  0  0  0  0  0  0
   38.6600   32.5230   56.3120 S   0  0  0  0  0  0  0  0  0  0  0  0
  1  8  1  0
  2  6  1  0
  3  6  1  0
  4  7  1  0
  5  3  1  0
  7  5  1  0
  9  8  1  0
  9  4  1  0
M  END
$$$$

     RDKit          3D

 36 40  0  0  0  0  0  0  0  0999 V2000
   39.1060   33.6650   60.9040 C   0  0  0  0  0  0  0  0  0  0  0  0
   39.6520   27.9120   49.7330 C   0  0  0  0  0  0  0  0  0  0  0  0
   38.4930   29.5500   56.6660 C   0  0  0  0  0  0  0  0  0  0  0  0
   40.8290   32.0260   61.8140 C   0  0  0  0  0  0  0  0  0  0  0  0
   38.2360   37.9610   62.0910 C   0  0  0  0  0  0  0  0  0  0  0  0
   40.4960   30.0760   48.9490 C   0  0  0  0  0  0  0  0  0  0  0  0
   37.8950   30.4480   55.6160 C   0  0  0  0  0  0  0  0  0  0  0  0
   39.9260   29.5250   51.2050 C   0  0  0  0  0  0  0  0  0  0  0  0
   39.5770   30.6060   53.1910 C   0  0  0  0  0  0  0  0  0  0  0  0
   36.8170   37.2010   59.3120 O   0  0  0  0  0  0  0  0  0  0  0  0
   36.7890   37.3050   61.7240 C   0  0  0  0  0  0  0  0  0  0  0  0
   38.1930   27.3770   53.8050 C   0  0  0  0  0  0  0  0  0  0  0  0
   39.6500   32.4100   61.0320 C   0  0  0  0  0  0  0  0  0  0  0  0
   36.9640   36.6010   60.3270 C   0  0  0  0  0  0  0  0  0  0  0  0
   38.6890   28.7060   52.8910 C   0  0  0  0  0  0  0  0  0  0  0  0
   39.2010   28.4950   51.7570 N   0  0  0  0  0  0  0  0  0  0  0  0
   37.8790   28.5750   57.5300 C   0  0  0  0  0  0  0  0  0  0  0  0
   37.7620   33.7280   56.0990 O   0  0  0  0  0  0  0  0  0  0  0  0
   37.7360   36.7330   62.8110 C   0  0  0  0  0  0  0  0  0  0  0  0
   36.9700   34.2870   59.3710 N   0  0  0  0  0  0  0  0  0  0  0  0
   39.1190   27.3680   50.8650 N   0  0  0  0  0  0  0  0  0  0  0  0
   39.0850   31.3990   60.2530 N   0  0  0  0  0  0  0  0  0  0  0  0
   38.1450   31.6880   59.3060 C   0  0  0  0  0  0  0  0  0  0  0  0
   40.0050   29.1840   49.9690 C   0  0  0  0  0  0  0  0  0  0  0  0
   38.8710   29.5780   53.5470 C   0  0  0  0  0  0  0  0  0  0  0  0
   37.3320   28.0010   54.8150 C   0  0  0  0  0  0  0  0  0  0  0  0
   37.4230   35.2000   60.3850 N   0  0  0  0  0  0  0  0  0  0  0  0
   38.3790   32.7300   56.9800 C   0  0  0  0  0  0  0  0  0  0  0  0
   38.1870   34.1050   59.9180 C   0  0  0  0  0  0  0  0  0  0  0  0
   39.3320   27.8070   59.5790 C   0  0  0  0  0  0  0  0  0  0  0  0
   39.2020   28.0690   58.1970 C   0  0  0  0  0  0  0  0  0  0  0  0
   37.8080   29.3570   55.1250 C   0  0  0  0  0  0  0  0  0  0  0  0
   40.4430   28.1230   57.2930 C   0  0  0  0  0  0  0  0  0  0  0  0
   38.9330   31.7150   56.0140 C   0  0  0  0  0  0  0  0  0  0  0  0
   37.6600   32.2780   58.2480 N   0  0  0  0  0  0  0  0  0  0  0  0
   40.1690   30.6120   51.9260 N   0  0  0  0  0  0  0  0  0  0  0  0
  1 13  1  0
  2 24  1  0
  2 21  1  0
  3 17  1  0
  5 19  1  0
  6 24  1  0
  7 34  1  0
  7  3  1  0
  8 16  1  0
  8 36  1  0
  9 25  1  0
 10 14  2  0
 11  5  1  0
 11 19  1  0
 12 26  1  0
 13  4  1  0
 14 27  1  0
 14 11  1  0
 15 25  2  0
 15 12  1  0
 16 15  1  0
 17 31  1  0
 20 29  1  0
 20 27  1  0
 21 16  1  0
 22 13  2  3
 23 22  1  0
 24  8  2  0
 25 32  1  0
 26 32  1  0
 28 18  1  0
 28 35  1  0
 29 27  1  0
 29  1  1  0
 31 30  1  0
 32  7  1  0
 33 31  1  0
 34 28  1  0
 35 23  1  0
 36  9  2  0
M  END
$$$$

     RDKit          3D

 39 44  0  0  0  0  0  0  0  0999 V2000
   36.6240   35.2470   60.9280 F   0  0  0  0  0  0  0  0  0  0  0  0
   39.5530   30.9370   49.4870 C   0  0  0  0  0  0  0  0  0  0  0  0
   37.1590   36.2090   60.1390 C   0  0  0  0  0  0  0  0  0  0  0  0
   37.4530   25.4160   55.7860 C   0  0  0  0  0  0  0  0  0  0  0  0
   38.4730   31.8680   61.0590 C   0  0  0  0  0  0  0  0  0  0  0  0
   38.3300   31.5860   58.2850 C   0  0  0  0  0  0  0  0  0  0  0  0
   37.9100   38.4040   60.9210 N   0  0  0  0  0  0  0  0  0  0  0  0
   39.4120   27.3020   52.9310 C   0  0  0  0  0  0  0  0  0  0  0  0
   40.3710   29.0440   50.1160 C   0  0  0  0  0  0  0  0  0  0  0  0
   38.8820   29.8050   53.3610 C   0  0  0  0  0  0  0  0  0  0  0  0
   38.9010   28.3180   53.8040 C   0  0  0  0  0  0  0  0  0  0  0  0
   38.3960   33.0190   61.6750 C   0  0  0  0  0  0  0  0  0  0  0  0
   39.7140   27.5440   51.9190 C   0  0  0  0  0  0  0  0  0  0  0  0
   38.8270   31.1140   50.9710 C   0  0  0  0  0  0  0  0  0  0  0  0
   39.2790   31.9590   48.7150 N   0  0  0  0  0  0  0  0  0  0  0  0
   38.5810   33.6530   59.5300 N   0  0  0  0  0  0  0  0  0  0  0  0
   38.7540   34.2630   60.8270 C   0  0  0  0  0  0  0  0  0  0  0  0
   39.6650   25.1280   56.8910 C   0  0  0  0  0  0  0  0  0  0  0  0
   38.0560   33.4970   48.9620 C   0  0  0  0  0  0  0  0  0  0  0  0
   37.3180   29.5340   59.0390 O   0  0  0  0  0  0  0  0  0  0  0  0
   37.8090   30.4630   54.5850 O   0  0  0  0  0  0  0  0  0  0  0  0
   38.1310   32.2770   51.0240 S   0  0  0  0  0  0  0  0  0  0  0  0
   38.7630   37.5100   61.5210 C   0  0  0  0  0  0  0  0  0  0  0  0
   38.4300   32.1890   59.5850 C   0  0  0  0  0  0  0  0  0  0  0  0
   40.0040   37.8740   62.2840 C   0  0  0  0  0  0  0  0  0  0  0  0
   39.0530   29.9400   51.8780 C   0  0  0  0  0  0  0  0  0  0  0  0
   37.8010   30.0790   58.1280 C   0  0  0  0  0  0  0  0  0  0  0  0
   38.3570   32.7280   49.4210 C   0  0  0  0  0  0  0  0  0  0  0  0
   36.8710   24.9190   56.9080 O   0  0  0  0  0  0  0  0  0  0  0  0
   38.9770   25.9320   55.9130 C   0  0  0  0  0  0  0  0  0  0  0  0
   38.9640   27.3670   56.0860 C   0  0  0  0  0  0  0  0  0  0  0  0
   38.4890   30.7490   55.9580 C   0  0  0  0  0  0  0  0  0  0  0  0
   39.3520   28.1980   55.1270 O   0  0  0  0  0  0  0  0  0  0  0  0
   39.7300   28.8570   51.2380 C   0  0  0  0  0  0  0  0  0  0  0  0
   37.9020   29.6580   56.7050 O   0  0  0  0  0  0  0  0  0  0  0  0
   36.7170   37.6450   60.4030 C   0  0  0  0  0  0  0  0  0  0  0  0
   38.2660   31.9060   56.8380 C   0  0  0  0  0  0  0  0  0  0  0  0
   38.7220   36.0800   60.6780 C   0  0  0  0  0  0  0  0  0  0  0  0
   40.1500   29.6860   49.0020 C   0  0  0  0  0  0  0  0  0  0  0  0
  2 14  2  0
  3 36  1  0
  3 38  1  0
  3  1  1  0
  4 30  1  0
  4 29  1  0
  5 12  1  0
  6 37  1  0
  6 24  1  0
  7 23  1  0
  8 11  1  0
 10 11  1  0
 10 21  1  0
 11 33  1  0
 13  8  2  0
 14 22  1  0
 15 28  2  0
 15  2  1  0
 16 24  1  0
 16 17  1  0
 17 12  1  0
 19 28  1  0
 23 25  1  0
 24  5  1  0
 26 14  1  0
 26 10  1  0
 27  6  1  0
 27 20  2  0
 28 22  1  0
 30 31  1  0
 30 18  1  0
 32 21  1  0
 32 35  1  0
 32 37  1  0
 33 31  1  0
 34  9  1  0
 34 26  1  0
 34 13  1  0
 35 27  1  0
 36  7  1  0
 38 17  1  0
 38 23  1  0
 39  2  1  0
 39  9  1  0
M  END
$$$$

     RDKit          3D

 37 40  0  0  0  0  0  0  0  0999 V2000
   37.7990   37.9950   60.5260 C   0  0  0  0  0  0  0  0  0  0  0  0
   36.3940   33.8190   59.1310 C   0  0  0  0  0  0  0  0  0  0  0  0
   37.6670   33.1660   59.3510 C   0  0  0  0  0  0  0  0  0  0  0  0
   38.2440   31.6040   57.1810 C   0  0  0  0  0  0  0  0  0  0  0  0
   36.1120   35.0690   59.3300 N   0  0  0  0  0  0  0  0  0  0  0  0
   40.2330   35.9250   62.0330 C   0  0  0  0  0  0  0  0  0  0  0  0
   37.4080   26.5180   54.9610 C   0  0  0  0  0  0  0  0  0  0  0  0
   36.8270   37.1610   59.9240 N   0  0  0  0  0  0  0  0  0  0  0  0
   39.7130   25.4700   54.9680 O   0  0  0  0  0  0  0  0  0  0  0  0
   38.3900   32.7070   56.4570 C   0  0  0  0  0  0  0  0  0  0  0  0
   38.4820   28.4240   58.3370 C   0  0  0  0  0  0  0  0  0  0  0  0
   39.4980   27.6740   51.5860 C   0  0  0  0  0  0  0  0  0  0  0  0
   38.0990   28.7130   55.8950 O   0  0  0  0  0  0  0  0  0  0  0  0
   37.0630   35.8320   59.9630 C   0  0  0  0  0  0  0  0  0  0  0  0
   37.5470   39.1310   60.7220 O   0  0  0  0  0  0  0  0  0  0  0  0
   39.3420   38.3770   62.0480 O   0  0  0  0  0  0  0  0  0  0  0  0
   38.4700   25.6580   55.7750 C   0  0  0  0  0  0  0  0  0  0  0  0
   38.2460   35.3170   60.4730 C   0  0  0  0  0  0  0  0  0  0  0  0
   38.5690   33.9640   60.1610 C   0  0  0  0  0  0  0  0  0  0  0  0
   38.8560   26.2950   57.0970 C   0  0  0  0  0  0  0  0  0  0  0  0
   38.5730   30.9210   54.1950 C   0  0  0  0  0  0  0  0  0  0  0  0
   37.3530   27.5670   53.8040 C   0  0  0  0  0  0  0  0  0  0  0  0
   38.7610   27.8280   56.9140 C   0  0  0  0  0  0  0  0  0  0  0  0
   40.5790   29.3950   48.6130 F   0  0  0  0  0  0  0  0  0  0  0  0
   37.8810   31.8230   58.6990 C   0  0  0  0  0  0  0  0  0  0  0  0
   39.4160   30.0980   51.9140 C   0  0  0  0  0  0  0  0  0  0  0  0
   38.7420   37.5850   61.2120 N   0  0  0  0  0  0  0  0  0  0  0  0
   38.7710   29.4490   54.7630 C   0  0  0  0  0  0  0  0  0  0  0  0
   38.3730   29.4030   58.9860 C   0  0  0  0  0  0  0  0  0  0  0  0
   40.1970   27.6970   56.4810 C   0  0  0  0  0  0  0  0  0  0  0  0
   39.9560   30.2460   50.6480 C   0  0  0  0  0  0  0  0  0  0  0  0
   40.1190   29.1680   49.8020 C   0  0  0  0  0  0  0  0  0  0  0  0
   39.9190   27.8760   50.3120 C   0  0  0  0  0  0  0  0  0  0  0  0
   39.1180   36.2430   61.2330 C   0  0  0  0  0  0  0  0  0  0  0  0
   38.7690   30.8490   59.4540 C   0  0  0  0  0  0  0  0  0  0  0  0
   38.5210   28.5260   53.6160 C   0  0  0  0  0  0  0  0  0  0  0  0
   39.1900   28.7750   52.3940 C   0  0  0  0  0  0  0  0  0  0  0  0
  1 15  2  0
  1 27  1  0
  2  5  1  0
  2  3  1  0
  3 25  1  0
  3 19  1  0
  5 14  2  0
  7 17  1  0
  8 14  1  0
  8  1  1  0
 10  4  2  0
 11 29  1  0
 12 37  1  0
 13 23  1  0
 14 18  1  0
 17  9  1  0
 17 20  1  0
 18 34  1  0
 19 18  2  0
 22  7  1  0
 23 30  1  0
 23 20  1  0
 23 11  1  0
 24 32  1  0
 25  4  1  0
 25 35  1  0
 26 37  2  0
 27 34  1  0
 27 16  1  0
 28 21  1  0
 28 13  1  0
 29 35  1  0
 31 26  1  0
 32 33  1  0
 32 31  2  0
 33 12  2  0
 34  6  1  0
 36 37  1  0
 36 22  1  0
 36 28  1  0
M  END
$$$$

     RDKit          3D

 28 28  0  0  0  0  0  0  0  0999 V2000
   38.4050   32.2230   55.9210 C   0  0  0  0  0  0  0  0  0  0  0  0
   36.4170   35.5320   61.2440 O   0  0  0  0  0  0  0  0  0  0  0  0
   39.5810   31.2840   53.1260 C   0  0  0  0  0  0  0  0  0  0  0  0
   42.5130   27.4860   57.9890 N   0  0  0  0  0  0  0  0  0  0  0  0
   39.6130   29.0940   51.8900 C   0  0  0  0  0  0  0  0  0  0  0  0
   40.1780   29.5980   50.5890 O   0  0  0  0  0  0  0  0  0  0  0  0
   37.3180   36.2460   60.2960 S   0  0  0  0  0  0  0  0  0  0  0  0
   38.3610   29.8740   55.3200 N   0  0  0  0  0  0  0  0  0  0  0  0
   39.0980   27.1660   53.4080 C   0  0  0  0  0  0  0  0  0  0  0  0
   39.0360   34.2620   60.0790 C   0  0  0  0  0  0  0  0  0  0  0  0
   39.3780   27.7350   52.0590 C   0  0  0  0  0  0  0  0  0  0  0  0
   39.3330   26.9800   50.8940 F   0  0  0  0  0  0  0  0  0  0  0  0
   38.9880   31.9730   60.6680 O   0  0  0  0  0  0  0  0  0  0  0  0
   41.1540   27.2690   57.8080 C   0  0  0  0  0  0  0  0  0  0  0  0
   38.8930   29.2860   54.4200 C   0  0  0  0  0  0  0  0  0  0  0  0
   38.7140   33.0290   57.1370 C   0  0  0  0  0  0  0  0  0  0  0  0
   39.4070   29.9590   53.0900 C   0  0  0  0  0  0  0  0  0  0  0  0
   38.4420   32.9590   59.7230 C   0  0  0  0  0  0  0  0  0  0  0  0
   40.5220   28.2690   56.8200 C   0  0  0  0  0  0  0  0  0  0  0  0
   39.5050   27.5420   55.8560 C   0  0  0  0  0  0  0  0  0  0  0  0
   36.8650   36.1450   58.9400 O   0  0  0  0  0  0  0  0  0  0  0  0
   39.8330   30.7870   50.2560 O   0  0  0  0  0  0  0  0  0  0  0  0
   37.4580   37.6440   60.6360 O   0  0  0  0  0  0  0  0  0  0  0  0
   38.3820   32.1540   58.3490 C   0  0  0  0  0  0  0  0  0  0  0  0
   39.1950   27.9140   54.5600 C   0  0  0  0  0  0  0  0  0  0  0  0
   37.1840   30.2860   56.9350 O   0  0  0  0  0  0  0  0  0  0  0  0
   38.6220   35.4790   60.5320 N   0  0  0  0  0  0  0  0  0  0  0  0
   38.3640   30.8150   56.3190 C   0  0  0  0  0  0  0  0  0  0  0  0
  1 28  1  0
  1 16  1  0
  5 11  2  0
  5 17  1  0
  6  5  1  0
  7 27  1  0
  7 23  1  0
  7  2  1  0
  8 28  1  0
  9 25  2  0
 10 27  1  0
 11  9  1  0
 12 11  1  0
 14  4  1  0
 15 25  1  0
 15  8  1  0
 16 24  1  0
 17  3  1  0
 17 15  2  0
 18 10  1  0
 18 13  1  0
 19 14  1  0
 20 19  1  0
 21  7  1  0
 22  6  1  0
 24 18  1  0
 25 20  1  0
 28 26  1  0
M  END
$$$$

     RDKit          3D

 35 38  0  0  0  0  0  0  0  0999 V2000
   39.4040   29.0450   57.0140 C   0  0  0  0  0  0  0  0  0  0  0  0
   39.9720   28.1270   55.8900 C   0  0  0  0  0  0  0  0  0  0  0  0
   38.4090   31.6500   54.9600 C   0  0  0  0  0  0  0  0  0  0  0  0
   38.9970   31.4910   60.6680 N   0  0  0  0  0  0  0  0  0  0  0  0
   36.2060   37.0250   59.3780 O   0  0  0  0  0  0  0  0  0  0  0  0
   38.3690   33.7600   55.8450 O   0  0  0  0  0  0  0  0  0  0  0  0
   38.1850   32.5310   53.9280 O   0  0  0  0  0  0  0  0  0  0  0  0
   38.3210   36.3170   60.3930 C   0  0  0  0  0  0  0  0  0  0  0  0
   37.3960   29.4070   55.6970 C   0  0  0  0  0  0  0  0  0  0  0  0
   39.0620   29.6640   53.6090 C   0  0  0  0  0  0  0  0  0  0  0  0
   37.9520   29.1140   57.1040 N   0  0  0  0  0  0  0  0  0  0  0  0
   39.9560   30.4870   51.1120 C   0  0  0  0  0  0  0  0  0  0  0  0
   38.7240   33.9280   60.8050 C   0  0  0  0  0  0  0  0  0  0  0  0
   38.2890   31.2950   59.5030 N   0  0  0  0  0  0  0  0  0  0  0  0
   40.1190   30.3030   48.5930 C   0  0  0  0  0  0  0  0  0  0  0  0
   38.2840   30.2260   54.7810 C   0  0  0  0  0  0  0  0  0  0  0  0
   39.3420   28.2910   53.5670 C   0  0  0  0  0  0  0  0  0  0  0  0
   39.1070   27.6200   54.7680 C   0  0  0  0  0  0  0  0  0  0  0  0
   39.8460   28.0040   51.2500 C   0  0  0  0  0  0  0  0  0  0  0  0
   38.0590   29.9610   59.4280 C   0  0  0  0  0  0  0  0  0  0  0  0
   37.2480   29.3500   58.3090 C   0  0  0  0  0  0  0  0  0  0  0  0
   38.7690   32.4500   56.1730 C   0  0  0  0  0  0  0  0  0  0  0  0
   38.6060   29.3860   60.5020 C   0  0  0  0  0  0  0  0  0  0  0  0
   36.5380   34.7400   60.0100 C   0  0  0  0  0  0  0  0  0  0  0  0
   39.5350   27.4890   52.3520 C   0  0  0  0  0  0  0  0  0  0  0  0
   39.5320   32.7210   61.0350 C   0  0  0  0  0  0  0  0  0  0  0  0
   39.1480   35.2040   60.8790 C   0  0  0  0  0  0  0  0  0  0  0  0
   40.6470   32.8300   61.4610 O   0  0  0  0  0  0  0  0  0  0  0  0
   40.5990   35.7000   61.4630 Cl  0  0  0  0  0  0  0  0  0  0  0  0
   39.2080   30.3640   61.2880 C   0  0  0  0  0  0  0  0  0  0  0  0
   40.0880   28.4610   50.0910 C   0  0  0  0  0  0  0  0  0  0  0  0
   39.4810   30.4550   52.3900 C   0  0  0  0  0  0  0  0  0  0  0  0
   37.3800   33.6780   60.3240 C   0  0  0  0  0  0  0  0  0  0  0  0
   40.2410   29.7540   49.8330 C   0  0  0  0  0  0  0  0  0  0  0  0
   37.0510   35.9920   60.0120 C   0  0  0  0  0  0  0  0  0  0  0  0
  1 11  1  0
  2  1  2  0
  3  7  1  0
  3 22  1  0
  4 26  1  0
  4 30  1  0
  5 35  1  0
  6 22  1  0
  8 27  1  0
  9 11  1  0
 10 16  1  0
 11 21  1  0
 12 32  1  0
 13 27  2  0
 13 26  1  0
 14  4  1  0
 15 34  2  0
 16  3  1  0
 16  9  1  0
 17 25  1  0
 17 10  1  0
 17 18  1  0
 18  2  1  0
 19 25  2  0
 20 14  2  0
 20 23  1  0
 21 20  1  0
 23 30  2  0
 24 35  1  0
 24 33  2  0
 26 28  2  0
 27 29  1  0
 31 19  2  0
 32 10  2  0
 33 13  1  0
 34 31  1  0
 34 12  1  0
 35  8  2  0
M  END
$$$$

     RDKit          3D

 35 36  0  0  0  0  0  0  0  0999 V2000
   38.5260   30.7190   57.5190 C   0  0  0  0  0  0  0  0  0  0  0  0
   40.4040   35.0020   60.6020 O   0  0  0  0  0  0  0  0  0  0  0  0
   36.8220   37.1750   61.2900 O   0  0  0  0  0  0  0  0  0  0  0  0
   38.6530   29.9900   55.9570 C   0  0  0  0  0  0  0  0  0  0  0  0
   38.3860   31.2030   54.0600 O   0  0  0  0  0  0  0  0  0  0  0  0
   39.9760   35.6870   61.2370 C   0  0  0  0  0  0  0  0  0  0  0  0
   38.7190   28.7020   55.0590 C   0  0  0  0  0  0  0  0  0  0  0  0
   38.5780   29.5780   58.2260 C   0  0  0  0  0  0  0  0  0  0  0  0
   36.5070   30.2310   54.7220 C   0  0  0  0  0  0  0  0  0  0  0  0
   39.2030   28.9290   53.5580 C   0  0  0  0  0  0  0  0  0  0  0  0
   40.1060   28.7720   50.8860 N   0  0  0  0  0  0  0  0  0  0  0  0
   37.7860   33.2930   59.8040 C   0  0  0  0  0  0  0  0  0  0  0  0
   40.1760   29.6370   48.6260 C   0  0  0  0  0  0  0  0  0  0  0  0
   39.2710   25.1480   56.6400 C   0  0  0  0  0  0  0  0  0  0  0  0
   38.5320   29.6970   59.6520 C   0  0  0  0  0  0  0  0  0  0  0  0
   40.4130   27.6770   56.7020 C   0  0  0  0  0  0  0  0  0  0  0  0
   38.8390   26.0220   55.4530 C   0  0  0  0  0  0  0  0  0  0  0  0
   38.1560   31.9700   59.5610 C   0  0  0  0  0  0  0  0  0  0  0  0
   38.0050   34.4850   60.1790 C   0  0  0  0  0  0  0  0  0  0  0  0
   40.0750   30.1920   50.8960 C   0  0  0  0  0  0  0  0  0  0  0  0
   40.1630   28.4110   49.3970 C   0  0  0  0  0  0  0  0  0  0  0  0
   40.3430   30.8070   49.4660 C   0  0  0  0  0  0  0  0  0  0  0  0
   37.3660   25.8550   55.1340 C   0  0  0  0  0  0  0  0  0  0  0  0
   36.2640   37.2680   58.9310 O   0  0  0  0  0  0  0  0  0  0  0  0
   40.0710   29.7270   47.4190 O   0  0  0  0  0  0  0  0  0  0  0  0
   38.3710   28.1600   52.6370 C   0  0  0  0  0  0  0  0  0  0  0  0
   38.9520   27.8920   51.3160 C   0  0  0  0  0  0  0  0  0  0  0  0
   36.9550   36.5650   60.1440 C   0  0  0  0  0  0  0  0  0  0  0  0
   40.3420   36.8680   61.9990 C   0  0  0  0  0  0  0  0  0  0  0  0
   39.0430   34.6750   61.2280 C   0  0  0  0  0  0  0  0  0  0  0  0
   39.3390   27.4810   55.6790 C   0  0  0  0  0  0  0  0  0  0  0  0
   38.3230   31.8300   58.0420 C   0  0  0  0  0  0  0  0  0  0  0  0
   37.3290   35.5390   59.8410 N   0  0  0  0  0  0  0  0  0  0  0  0
   37.8180   30.6780   55.0610 C   0  0  0  0  0  0  0  0  0  0  0  0
   38.2940   30.7780   60.3860 C   0  0  0  0  0  0  0  0  0  0  0  0
  1 32  2  0
  1  8  1  0
  2  6  2  0
  4 34  1  0
  4  1  1  0
  5 34  2  0
  6 29  1  0
  7 10  1  0
  7 31  1  0
  7  4  1  0
  8 15  2  0
  9 34  1  0
 11 20  1  0
 11 27  1  0
 13 21  1  0
 13 22  1  0
 15 35  1  0
 17 31  1  0
 17 14  1  0
 18 12  1  0
 18 35  2  0
 19 12  1  0
 19 30  1  0
 21 11  1  0
 22 20  1  0
 23 17  1  0
 24 28  2  0
 25 13  2  0
 26 10  1  0
 27 26  1  0
 28  3  1  0
 30  6  1  0
 31 16  1  0
 32 18  1  0
 33 28  1  0
 33 19  1  0
M  END
$$$$

     RDKit          3D

 42 44  0  0  0  0  0  0  0  0999 V2000
   38.0340   36.1260   61.3810 C   0  0  0  0  0  0  0  0  0  0  0  0
   36.3690   31.8220   61.1360 O   0  0  0  0  0  0  0  0  0  0  0  0
   38.7900   30.5010   49.4600 C   0  0  0  0  0  0  0  0  0  0  0  0
   38.1490   39.3980   60.4800 O   0  0  0  0  0  0  0  0  0  0  0  0
   39.7880   29.2890   58.7160 C   0  0  0  0  0  0  0  0  0  0  0  0
   40.6400   28.3210   57.7220 C   0  0  0  0  0  0  0  0  0  0  0  0
   40.1380   29.1420   60.1810 C   0  0  0  0  0  0  0  0  0  0  0  0
   39.3640   28.3970   54.4860 C   0  0  0  0  0  0  0  0  0  0  0  0
   37.1260   36.4510   60.2380 C   0  0  0  0  0  0  0  0  0  0  0  0
   38.9950   28.9270   47.5030 O   0  0  0  0  0  0  0  0  0  0  0  0
   39.4370   29.3690   48.6990 C   0  0  0  0  0  0  0  0  0  0  0  0
   37.3650   32.5970   60.7450 C   0  0  0  0  0  0  0  0  0  0  0  0
   38.9250   31.8820   48.6190 C   0  0  0  0  0  0  0  0  0  0  0  0
   38.4650   34.6580   61.3550 C   0  0  0  0  0  0  0  0  0  0  0  0
   37.7710   39.2250   61.7610 C   0  0  0  0  0  0  0  0  0  0  0  0
   39.2340   28.2090   50.7230 C   0  0  0  0  0  0  0  0  0  0  0  0
   37.9750   32.4910   59.6050 C   0  0  0  0  0  0  0  0  0  0  0  0
   38.4940   32.9170   49.4670 O   0  0  0  0  0  0  0  0  0  0  0  0
   39.5270   29.0140   55.7540 O   0  0  0  0  0  0  0  0  0  0  0  0
   38.4610   30.9860   59.6650 C   0  0  0  0  0  0  0  0  0  0  0  0
   39.5240   30.4210   60.6750 C   0  0  0  0  0  0  0  0  0  0  0  0
   38.6280   31.1090   62.7710 O   0  0  0  0  0  0  0  0  0  0  0  0
   40.9440   27.5650   49.0830 F   0  0  0  0  0  0  0  0  0  0  0  0
   37.0360   37.7770   61.7520 C   0  0  0  0  0  0  0  0  0  0  0  0
   37.6220   29.8510   54.7760 C   0  0  0  0  0  0  0  0  0  0  0  0
   37.1580   30.9230   54.0460 O   0  0  0  0  0  0  0  0  0  0  0  0
   36.8320   35.7770   59.4050 O   0  0  0  0  0  0  0  0  0  0  0  0
   37.2730   33.8480   61.1150 N   0  0  0  0  0  0  0  0  0  0  0  0
   35.7290   38.0130   62.7420 C   0  0  0  0  0  0  0  0  0  0  0  0
   38.9630   30.3290   61.9830 N   0  0  0  0  0  0  0  0  0  0  0  0
   41.1040   29.3050   50.2860 F   0  0  0  0  0  0  0  0  0  0  0  0
   36.5710   37.5980   60.5370 O   0  0  0  0  0  0  0  0  0  0  0  0
   39.5880   26.8370   53.9400 S   0  0  0  0  0  0  0  0  0  0  0  0
   40.2600   28.5420   49.5950 C   0  0  0  0  0  0  0  0  0  0  0  0
   37.9170   30.2410   57.2050 C   0  0  0  0  0  0  0  0  0  0  0  0
   36.7070   29.9510   57.3860 O   0  0  0  0  0  0  0  0  0  0  0  0
   36.7470   28.3070   53.3040 O   0  0  0  0  0  0  0  0  0  0  0  0
   38.5350   30.0500   55.7860 C   0  0  0  0  0  0  0  0  0  0  0  0
   38.9160   30.8510   50.6630 F   0  0  0  0  0  0  0  0  0  0  0  0
   39.6890   27.0910   52.0920 S   0  0  0  0  0  0  0  0  0  0  0  0
   38.8900   30.2140   58.3940 C   0  0  0  0  0  0  0  0  0  0  0  0
   37.8710   28.5220   54.2670 C   0  0  0  0  0  0  0  0  0  0  0  0
  1 14  1  0
  1 24  1  0
  3 39  1  0
  4 15  1  0
  5  6  1  0
  5  7  1  0
  7 21  1  0
  8 33  1  0
  8 19  1  0
  9 32  1  0
  9  1  1  0
 11 10  1  0
 11  3  1  0
 11 34  1  0
 12 28  1  0
 12  2  2  0
 13  3  1  0
 13 18  1  0
 16 40  1  0
 17 12  1  0
 19 38  1  0
 20 17  1  0
 20 21  1  0
 21 30  1  0
 23 34  1  0
 24 15  1  0
 24 29  1  0
 25 26  1  0
 25 38  1  0
 27  9  2  0
 28 14  1  0
 30 22  2  0
 32 24  1  0
 34 31  1  0
 34 16  1  0
 35 36  2  0
 38 35  1  0
 40 33  1  0
 41 35  1  0
 41  5  1  0
 41 20  1  0
 42 37  1  0
 42  8  1  0
 42 25  1  0
M  END
$$$$

     RDKit          3D

 21 21  0  0  0  0  0  0  0  0999 V2000
   37.4650   29.4310   55.1450 C   0  0  0  0  0  0  0  0  0  0  0  0
   36.6260   34.6410   58.8420 N   0  0  0  0  0  0  0  0  0  0  0  0
   38.2380   31.3210   56.5680 C   0  0  0  0  0  0  0  0  0  0  0  0
   38.3420   34.9670   60.5730 C   0  0  0  0  0  0  0  0  0  0  0  0
   37.3430   30.7310   55.4900 C   0  0  0  0  0  0  0  0  0  0  0  0
   37.7510   34.0450   59.4580 C   0  0  0  0  0  0  0  0  0  0  0  0
   37.2690   28.2190   54.5000 C   0  0  0  0  0  0  0  0  0  0  0  0
   40.5670   35.7750   61.4240 C   0  0  0  0  0  0  0  0  0  0  0  0
   38.4630   31.6620   58.9520 C   0  0  0  0  0  0  0  0  0  0  0  0
   37.5640   32.6170   59.8870 C   0  0  0  0  0  0  0  0  0  0  0  0
   39.2400   26.6700   54.1720 C   0  0  0  0  0  0  0  0  0  0  0  0
   39.1970   28.7050   51.5140 C   0  0  0  0  0  0  0  0  0  0  0  0
   38.2130   28.1150   52.3070 C   0  0  0  0  0  0  0  0  0  0  0  0
   39.6160   28.1210   50.2410 C   0  0  0  0  0  0  0  0  0  0  0  0
   37.7680   30.9180   57.9330 N   0  0  0  0  0  0  0  0  0  0  0  0
   40.6370   30.3280   50.3760 C   0  0  0  0  0  0  0  0  0  0  0  0
   39.8220   34.6710   60.7290 C   0  0  0  0  0  0  0  0  0  0  0  0
   37.9920   36.4350   60.3790 C   0  0  0  0  0  0  0  0  0  0  0  0
   39.7610   30.2870   51.8600 S   0  0  0  0  0  0  0  0  0  0  0  0
   40.0760   29.2870   49.4400 C   0  0  0  0  0  0  0  0  0  0  0  0
   38.3110   27.6150   53.6910 C   0  0  0  0  0  0  0  0  0  0  0  0
  1  5  2  0
  3 15  1  0
  4 18  1  0
  4 17  1  0
  5  3  1  0
  6  2  1  0
  6 10  1  0
  6  4  1  0
  7  1  2  0
  9 10  1  0
 12 19  1  0
 12 13  1  0
 13 21  1  0
 14 12  1  0
 15  9  1  0
 16 19  1  0
 17  8  1  0
 20 14  1  0
 20 16  1  0
 21 11  1  0
 21  7  1  0
M  END
$$$$

     RDKit          3D

 15 14  0  0  0  0  0  0  0  0999 V2000
   38.6610   32.8210   56.8660 C   0  0  0  0  0  0  0  0  0  0  0  0
   38.7340   34.3810   60.3440 C   0  0  0  0  0  0  0  0  0  0  0  0
   37.2890   36.5400   60.1460 C   0  0  0  0  0  0  0  0  0  0  0  0
   38.2440   28.3060   52.7920 C   0  0  0  0  0  0  0  0  0  0  0  0
   39.1160   29.4980   53.1790 C   0  0  0  0  0  0  0  0  0  0  0  0
   39.2620   36.5400   61.5920 C   0  0  0  0  0  0  0  0  0  0  0  0
   38.2300   31.5030   56.1460 C   0  0  0  0  0  0  0  0  0  0  0  0
   38.1330   34.0930   59.0020 C   0  0  0  0  0  0  0  0  0  0  0  0
   40.2490   29.3030   49.9540 Cl  0  0  0  0  0  0  0  0  0  0  0  0
   39.2450   31.0180   55.1430 C   0  0  0  0  0  0  0  0  0  0  0  0
   39.4740   28.1990   50.5940 C   0  0  0  0  0  0  0  0  0  0  0  0
   38.7540   27.5880   51.5570 C   0  0  0  0  0  0  0  0  0  0  0  0
   38.5850   30.4610   53.8900 C   0  0  0  0  0  0  0  0  0  0  0  0
   38.4270   32.7750   58.3980 C   0  0  0  0  0  0  0  0  0  0  0  0
   38.1780   35.6400   60.9960 C   0  0  0  0  0  0  0  0  0  0  0  0
  1 14  1  0
  2 15  1  0
  3 15  1  0
  4  5  1  0
  5 13  1  0
  7  1  1  0
  8  2  1  0
  9 11  1  0
 10  7  1  0
 11 12  1  0
 12  4  1  0
 13 10  1  0
 14  8  1  0
 15  6  1  0
M  END
$$$$

     RDKit          3D

 26 28  0  0  0  0  0  0  0  0999 V2000
   36.6380   35.5570   60.6590 N   0  0  0  0  0  0  0  0  0  0  0  0
   39.0760   29.4390   54.2510 C   0  0  0  0  0  0  0  0  0  0  0  0
   38.7070   28.5910   56.6430 C   0  0  0  0  0  0  0  0  0  0  0  0
   39.7950   28.7060   50.1160 C   0  0  0  0  0  0  0  0  0  0  0  0
   39.1750   28.5060   55.3500 C   0  0  0  0  0  0  0  0  0  0  0  0
   36.5220   34.8020   59.3570 C   0  0  0  0  0  0  0  0  0  0  0  0
   38.9050   30.8290   54.5580 O   0  0  0  0  0  0  0  0  0  0  0  0
   39.0480   27.7880   50.8520 C   0  0  0  0  0  0  0  0  0  0  0  0
   39.1850   29.1510   52.8150 C   0  0  0  0  0  0  0  0  0  0  0  0
   40.1820   29.8810   50.7100 C   0  0  0  0  0  0  0  0  0  0  0  0
   36.9150   32.4250   60.0620 C   0  0  0  0  0  0  0  0  0  0  0  0
   37.9270   31.5300   55.2630 C   0  0  0  0  0  0  0  0  0  0  0  0
   38.3640   33.2910   58.1560 C   0  0  0  0  0  0  0  0  0  0  0  0
   38.3510   31.2060   56.7550 C   0  0  0  0  0  0  0  0  0  0  0  0
   36.8870   37.5030   61.8270 C   0  0  0  0  0  0  0  0  0  0  0  0
   39.8420   30.1710   52.0850 C   0  0  0  0  0  0  0  0  0  0  0  0
   37.1930   36.8120   60.7400 C   0  0  0  0  0  0  0  0  0  0  0  0
   37.4750   31.3320   59.8810 O   0  0  0  0  0  0  0  0  0  0  0  0
   37.5700   27.0450   52.9660 Cl  0  0  0  0  0  0  0  0  0  0  0  0
   38.7260   28.0390   52.2000 C   0  0  0  0  0  0  0  0  0  0  0  0
   37.6110   32.2940   57.3750 N   0  0  0  0  0  0  0  0  0  0  0  0
   37.5590   33.6880   59.4320 C   0  0  0  0  0  0  0  0  0  0  0  0
   37.8600   29.7890   57.0560 C   0  0  0  0  0  0  0  0  0  0  0  0
   39.7780   27.2190   55.1930 O   0  0  0  0  0  0  0  0  0  0  0  0
   36.0400   32.6900   60.9340 O   0  0  0  0  0  0  0  0  0  0  0  0
   37.8910   37.9840   61.0710 C   0  0  0  0  0  0  0  0  0  0  0  0
  1 17  1  0
  2  9  1  0
  2  7  1  0
  2  5  1  0
  3 23  1  0
  4 10  2  0
  4  8  1  0
  5  3  2  0
  6 22  1  0
  6  1  1  0
  7 12  1  0
  8 20  2  0
 10 16  1  0
 11 25  1  0
 12 14  1  0
 14 23  1  0
 14 21  1  0
 16  9  2  0
 17 26  1  0
 17 15  1  0
 18 11  2  0
 20  9  1  0
 20 19  1  0
 21 13  1  0
 22 13  1  0
 22 11  1  0
 24  5  1  0
 26 15  1  0
M  END
$$$$

     RDKit          3D

 11 10  0  0  0  0  0  0  0  0999 V2000
   39.7730   25.9720   54.8490 C   0  0  0  0  0  0  0  0  0  0  0  0
   39.1480   28.6950   53.8800 C   0  0  0  0  0  0  0  0  0  0  0  0
   39.2160   29.3460   52.3500 C   0  0  0  0  0  0  0  0  0  0  0  0
   39.9970   30.5540   52.0160 C   0  0  0  0  0  0  0  0  0  0  0  0
   38.3680   31.3890   56.4570 C   0  0  0  0  0  0  0  0  0  0  0  0
   38.0920   30.8020   55.0490 C   0  0  0  0  0  0  0  0  0  0  0  0
   38.5700   32.8530   56.2890 C   0  0  0  0  0  0  0  0  0  0  0  0
   40.4080   26.1110   56.1160 O   0  0  0  0  0  0  0  0  0  0  0  0
   38.9690   29.6340   54.7810 C   0  0  0  0  0  0  0  0  0  0  0  0
   39.4240   27.3300   54.2100 C   0  0  0  0  0  0  0  0  0  0  0  0
   37.7510   33.4920   57.2980 O   0  0  0  0  0  0  0  0  0  0  0  0
  1  8  1  0
  2  3  1  0
  2 10  1  0
  2  9  1  0
  4  3  1  0
  6  5  1  0
  7  5  1  0
  7 11  1  0
  9  6  1  0
 10  1  1  0
M  END
$$$$

     RDKit          3D

 28 29  0  0  0  0  0  0  0  0999 V2000
   38.5350   28.3840   53.7760 C   0  0  0  0  0  0  0  0  0  0  0  0
   38.5710   32.9780   55.7370 C   0  0  0  0  0  0  0  0  0  0  0  0
   38.1060   33.7420   60.0480 N   0  0  0  0  0  0  0  0  0  0  0  0
   39.7780   28.1040   50.2020 C   0  0  0  0  0  0  0  0  0  0  0  0
   39.3620   27.7100   51.4750 C   0  0  0  0  0  0  0  0  0  0  0  0
   39.2560   29.2860   54.7110 C   0  0  0  0  0  0  0  0  0  0  0  0
   37.0790   34.7050   60.2200 C   0  0  0  0  0  0  0  0  0  0  0  0
   37.8480   32.1310   57.7330 N   0  0  0  0  0  0  0  0  0  0  0  0
   37.5250   32.1540   61.4590 O   0  0  0  0  0  0  0  0  0  0  0  0
   39.6900   26.3650   54.2220 C   0  0  0  0  0  0  0  0  0  0  0  0
   37.6740   31.5430   59.1280 C   0  0  0  0  0  0  0  0  0  0  0  0
   40.3350   30.6870   49.9710 C   0  0  0  0  0  0  0  0  0  0  0  0
   40.0690   29.3320   49.6020 C   0  0  0  0  0  0  0  0  0  0  0  0
   37.7930   32.4670   60.3090 C   0  0  0  0  0  0  0  0  0  0  0  0
   38.7140   30.5900   54.7780 O   0  0  0  0  0  0  0  0  0  0  0  0
   36.8700   37.0500   60.1150 C   0  0  0  0  0  0  0  0  0  0  0  0
   39.0830   28.7260   52.4180 C   0  0  0  0  0  0  0  0  0  0  0  0
   40.1580   30.7730   51.5380 C   0  0  0  0  0  0  0  0  0  0  0  0
   38.2960   31.5360   56.5360 C   0  0  0  0  0  0  0  0  0  0  0  0
   38.3610   26.9500   53.8660 C   0  0  0  0  0  0  0  0  0  0  0  0
   40.2740   29.2760   48.2590 O   0  0  0  0  0  0  0  0  0  0  0  0
   37.0740   35.9260   61.1100 C   0  0  0  0  0  0  0  0  0  0  0  0
   37.6100   30.6830   55.4400 C   0  0  0  0  0  0  0  0  0  0  0  0
   36.6140   30.0030   54.7660 O   0  0  0  0  0  0  0  0  0  0  0  0
   37.3570   30.1350   59.2080 C   0  0  0  0  0  0  0  0  0  0  0  0
   39.5820   30.0760   52.3270 C   0  0  0  0  0  0  0  0  0  0  0  0
   35.7690   34.0490   60.1020 C   0  0  0  0  0  0  0  0  0  0  0  0
   37.3200   27.9770   54.0760 C   0  0  0  0  0  0  0  0  0  0  0  0
  1 20  1  0
  1 28  1  0
  1  6  1  0
  3  7  1  0
  3 14  1  0
  4  5  2  0
  5 17  1  0
  6 15  1  0
  7 27  1  0
  7 22  1  0
  8 11  1  0
 11 25  1  0
 11 14  1  0
 12 18  1  0
 13 21  1  0
 13 12  1  0
 13  4  1  0
 14  9  2  0
 15 23  1  0
 16 22  1  0
 17  1  1  0
 18 26  1  0
 19  2  1  0
 19  8  1  0
 20 28  1  0
 20 10  1  0
 23 19  1  0
 24 23  2  0
 26 17  2  0
M  END
$$$$

     RDKit          3D

 37 39  0  0  0  0  0  0  0  0999 V2000
   39.9850   26.3360   53.9170 C   0  0  0  0  0  0  0  0  0  0  0  0
   38.4560   29.7870   54.0760 C   0  0  0  0  0  0  0  0  0  0  0  0
   39.8730   29.7490   50.4710 C   0  0  0  0  0  0  0  0  0  0  0  0
   38.1630   39.2150   61.4660 F   0  0  0  0  0  0  0  0  0  0  0  0
   38.7830   30.2210   52.7750 C   0  0  0  0  0  0  0  0  0  0  0  0
   38.2530   36.9130   61.4980 C   0  0  0  0  0  0  0  0  0  0  0  0
   39.4190   36.6690   62.2780 C   0  0  0  0  0  0  0  0  0  0  0  0
   38.2270   34.0180   59.2390 C   0  0  0  0  0  0  0  0  0  0  0  0
   36.1260   31.1660   60.7020 O   0  0  0  0  0  0  0  0  0  0  0  0
   40.5080   27.6180   49.8000 F   0  0  0  0  0  0  0  0  0  0  0  0
   38.8140   28.7110   48.8070 F   0  0  0  0  0  0  0  0  0  0  0  0
   38.7080   32.7700   56.2100 C   0  0  0  0  0  0  0  0  0  0  0  0
   36.3150   38.0730   61.0980 F   0  0  0  0  0  0  0  0  0  0  0  0
   40.0800   26.2050   55.4860 C   0  0  0  0  0  0  0  0  0  0  0  0
   39.4050   27.8120   52.1220 C   0  0  0  0  0  0  0  0  0  0  0  0
   36.9830   33.2230   59.0640 N   0  0  0  0  0  0  0  0  0  0  0  0
   37.2360   30.8790   59.9200 C   0  0  0  0  0  0  0  0  0  0  0  0
   37.9010   29.6630   60.1580 C   0  0  0  0  0  0  0  0  0  0  0  0
   38.8040   28.4240   54.6210 C   0  0  0  0  0  0  0  0  0  0  0  0
   38.5360   34.8900   60.2630 C   0  0  0  0  0  0  0  0  0  0  0  0
   38.2340   31.3940   56.2850 N   0  0  0  0  0  0  0  0  0  0  0  0
   37.0960   38.1760   63.1940 F   0  0  0  0  0  0  0  0  0  0  0  0
   38.1530   30.8660   57.6400 C   0  0  0  0  0  0  0  0  0  0  0  0
   38.9770   27.4070   53.4960 C   0  0  0  0  0  0  0  0  0  0  0  0
   37.5650   31.7840   58.7000 C   0  0  0  0  0  0  0  0  0  0  0  0
   37.2970   29.5210   57.6710 C   0  0  0  0  0  0  0  0  0  0  0  0
   40.0610   35.4250   62.1280 C   0  0  0  0  0  0  0  0  0  0  0  0
   39.1820   30.8520   50.2210 F   0  0  0  0  0  0  0  0  0  0  0  0
   41.1730   30.1640   50.3890 F   0  0  0  0  0  0  0  0  0  0  0  0
   37.6430   26.7030   53.3930 O   0  0  0  0  0  0  0  0  0  0  0  0
   37.6960   30.6610   55.0200 C   0  0  0  0  0  0  0  0  0  0  0  0
   37.4250   38.1350   61.7730 C   0  0  0  0  0  0  0  0  0  0  0  0
   37.8430   36.1030   60.4630 C   0  0  0  0  0  0  0  0  0  0  0  0
   39.3520   29.2930   51.7580 C   0  0  0  0  0  0  0  0  0  0  0  0
   39.7700   28.6450   49.6850 C   0  0  0  0  0  0  0  0  0  0  0  0
   39.6040   34.5520   61.1430 C   0  0  0  0  0  0  0  0  0  0  0  0
   37.5460   28.7680   58.9520 C   0  0  0  0  0  0  0  0  0  0  0  0
  1 14  1  0
  2 19  1  0
  2 31  1  0
  3 34  1  0
  4 32  1  0
  5  2  2  0
  6 32  1  0
  6  7  1  0
  8 20  1  0
 11 35  1  0
 12 21  1  0
 13 32  1  0
 15 24  1  0
 16  8  1  0
 17 18  1  0
 17  9  1  0
 20 33  1  0
 20 36  2  0
 23 21  1  0
 23 26  1  0
 23 25  1  0
 24 30  1  0
 24  1  1  0
 24 19  1  0
 25 16  1  0
 25 17  1  0
 26 37  1  0
 27  7  2  0
 28  3  1  0
 29  3  1  0
 31 21  1  0
 32 22  1  0
 33  6  2  0
 34 15  2  0
 34  5  1  0
 35 10  1  0
 35  3  1  0
 36 27  1  0
 37 18  1  0
M  END
$$$$

     RDKit          3D

 35 36  0  0  0  0  0  0  0  0999 V2000
   37.8950   29.5380   56.3420 C   0  0  0  0  0  0  0  0  0  0  0  0
   37.7570   29.6630   59.1970 C   0  0  0  0  0  0  0  0  0  0  0  0
   39.0860   32.5080   60.0300 O   0  0  0  0  0  0  0  0  0  0  0  0
   39.4160   26.7160   55.8120 C   0  0  0  0  0  0  0  0  0  0  0  0
   39.3590   35.3890   60.9330 C   0  0  0  0  0  0  0  0  0  0  0  0
   39.8470   29.6020   50.7030 C   0  0  0  0  0  0  0  0  0  0  0  0
   38.6590   33.4720   59.1660 C   0  0  0  0  0  0  0  0  0  0  0  0
   40.3450   29.6100   49.3700 C   0  0  0  0  0  0  0  0  0  0  0  0
   40.0600   37.0880   62.4080 O   0  0  0  0  0  0  0  0  0  0  0  0
   37.1740   35.3590   59.9190 C   0  0  0  0  0  0  0  0  0  0  0  0
   39.0080   32.9010   48.2560 O   0  0  0  0  0  0  0  0  0  0  0  0
   38.4410   32.0770   56.3380 S   0  0  0  0  0  0  0  0  0  0  0  0
   39.5430   25.3230   55.0400 C   0  0  0  0  0  0  0  0  0  0  0  0
   39.3840   31.8320   49.0840 C   0  0  0  0  0  0  0  0  0  0  0  0
   38.6550   33.2700   57.6320 C   0  0  0  0  0  0  0  0  0  0  0  0
   39.8830   28.4040   51.4890 C   0  0  0  0  0  0  0  0  0  0  0  0
   39.3150   30.8160   51.3160 C   0  0  0  0  0  0  0  0  0  0  0  0
   36.1630   37.4040   59.4100 O   0  0  0  0  0  0  0  0  0  0  0  0
   35.8040   34.6460   59.5960 C   0  0  0  0  0  0  0  0  0  0  0  0
   38.4450   34.7600   60.0110 C   0  0  0  0  0  0  0  0  0  0  0  0
   38.7770   24.4880   55.8200 O   0  0  0  0  0  0  0  0  0  0  0  0
   38.8880   30.3530   58.4570 O   0  0  0  0  0  0  0  0  0  0  0  0
   38.8690   30.3380   53.7500 O   0  0  0  0  0  0  0  0  0  0  0  0
   37.3000   26.9600   54.6360 C   0  0  0  0  0  0  0  0  0  0  0  0
   38.3540   27.4040   55.3960 N   0  0  0  0  0  0  0  0  0  0  0  0
   39.2620   29.2300   54.1080 C   0  0  0  0  0  0  0  0  0  0  0  0
   40.0890   30.7290   48.5470 C   0  0  0  0  0  0  0  0  0  0  0  0
   39.9470   28.3280   53.0300 C   0  0  0  0  0  0  0  0  0  0  0  0
   38.7010   28.8640   55.4300 C   0  0  0  0  0  0  0  0  0  0  0  0
   39.0820   31.9270   50.4870 C   0  0  0  0  0  0  0  0  0  0  0  0
   38.0270   37.4100   61.0610 C   0  0  0  0  0  0  0  0  0  0  0  0
   38.5180   30.6270   57.1050 C   0  0  0  0  0  0  0  0  0  0  0  0
   40.6560   34.6830   61.2050 C   0  0  0  0  0  0  0  0  0  0  0  0
   37.0990   36.7650   60.1470 C   0  0  0  0  0  0  0  0  0  0  0  0
   39.1090   36.6350   61.4370 C   0  0  0  0  0  0  0  0  0  0  0  0
  5 33  1  0
  5 35  2  0
  6 17  1  0
  6 16  1  0
  7  3  1  0
  8  6  2  0
 10 19  1  0
 10 20  1  0
 10 34  1  0
 11 14  1  0
 12 32  1  0
 12 15  1  0
 13  4  1  0
 13 21  1  0
 14 30  1  0
 15  7  1  0
 16 28  1  0
 20  7  1  0
 20  5  1  0
 22  2  1  0
 23 26  2  0
 24 25  1  0
 25 29  1  0
 25  4  1  0
 26 29  1  0
 27 14  2  0
 27  8  1  0
 28 26  1  0
 29  1  1  0
 30 17  2  0
 31 35  1  0
 32  1  1  0
 32 22  1  0
 34 18  1  0
 34 31  1  0
 35  9  1  0
M  END
$$$$

     RDKit          3D

  8  7  0  0  0  0  0  0  0  0999 V2000
   38.6980   32.1350   55.7610 C   0  0  0  0  0  0  0  0  0  0  0  0
   38.4640   32.9380   56.7590 C   0  0  0  0  0  0  0  0  0  0  0  0
   40.8870   35.3440   61.1910 C   0  0  0  0  0  0  0  0  0  0  0  0
   39.0290   31.0560   54.5760 S   0  0  0  0  0  0  0  0  0  0  0  0
   39.3650   34.9990   61.2010 C   0  0  0  0  0  0  0  0  0  0  0  0
   39.1570   33.7840   60.3080 C   0  0  0  0  0  0  0  0  0  0  0  0
   37.9870   33.9280   59.2300 C   0  0  0  0  0  0  0  0  0  0  0  0
   38.2550   32.9080   58.2240 C   0  0  0  0  0  0  0  0  0  0  0  0
  1  2  1  0
  2  8  2  3
  3  5  1  0
  4  1  1  0
  6  5  1  0
  7  6  1  0
  8  7  1  0
M  END
$$$$

     RDKit          3D

 47 50  0  0  0  0  0  0  0  0999 V2000
   39.5170   27.9190   49.7910 N   0  0  0  0  0  0  0  0  0  0  0  0
   38.7150   33.5260   61.6430 N   0  0  0  0  0  0  0  0  0  0  0  0
   40.7580   29.3420   61.2240 O   0  0  0  0  0  0  0  0  0  0  0  0
   39.4650   29.4660   60.5120 C   0  0  0  0  0  0  0  0  0  0  0  0
   37.9600   37.0970   62.9920 C   0  0  0  0  0  0  0  0  0  0  0  0
   39.9460   30.1100   49.8940 C   0  0  0  0  0  0  0  0  0  0  0  0
   38.6740   29.4830   58.0840 C   0  0  0  0  0  0  0  0  0  0  0  0
   39.1390   28.1550   54.0960 C   0  0  0  0  0  0  0  0  0  0  0  0
   39.0190   26.4080   58.0970 C   0  0  0  0  0  0  0  0  0  0  0  0
   38.7200   25.8600   56.9130 C   0  0  0  0  0  0  0  0  0  0  0  0
   37.6260   31.0090   59.8410 C   0  0  0  0  0  0  0  0  0  0  0  0
   39.8230   27.5020   58.3680 C   0  0  0  0  0  0  0  0  0  0  0  0
   39.8640   30.4360   52.7440 C   0  0  0  0  0  0  0  0  0  0  0  0
   39.2680   28.6120   59.2220 C   0  0  0  0  0  0  0  0  0  0  0  0
   40.6020   28.6500   48.1980 O   0  0  0  0  0  0  0  0  0  0  0  0
   37.3890   36.6350   60.5860 C   0  0  0  0  0  0  0  0  0  0  0  0
   38.3120   26.6740   55.8170 N   0  0  0  0  0  0  0  0  0  0  0  0
   39.9870   30.4620   51.2120 C   0  0  0  0  0  0  0  0  0  0  0  0
   35.8460   33.9260   60.0230 O   0  0  0  0  0  0  0  0  0  0  0  0
   38.8540   27.9820   55.5710 C   0  0  0  0  0  0  0  0  0  0  0  0
   40.7120   32.5660   61.9680 O   0  0  0  0  0  0  0  0  0  0  0  0
   38.3660   31.4810   55.3100 C   0  0  0  0  0  0  0  0  0  0  0  0
   38.9460   29.1390   56.4340 C   0  0  0  0  0  0  0  0  0  0  0  0
   37.1390   34.3590   59.5060 C   0  0  0  0  0  0  0  0  0  0  0  0
   38.4560   30.3780   60.9930 C   0  0  0  0  0  0  0  0  0  0  0  0
   39.1840   28.2900   51.1730 C   0  0  0  0  0  0  0  0  0  0  0  0
   40.0610   28.9580   49.2040 C   0  0  0  0  0  0  0  0  0  0  0  0
   40.0610   35.3330   61.4070 O   0  0  0  0  0  0  0  0  0  0  0  0
   37.6670   33.3590   56.9070 C   0  0  0  0  0  0  0  0  0  0  0  0
   37.2270   26.0560   54.9830 C   0  0  0  0  0  0  0  0  0  0  0  0
   39.8070   31.3410   48.8320 O   0  0  0  0  0  0  0  0  0  0  0  0
   39.0830   30.1760   55.3500 C   0  0  0  0  0  0  0  0  0  0  0  0
   38.2590   27.7920   51.7370 N   0  0  0  0  0  0  0  0  0  0  0  0
   38.6550   31.2110   62.2470 C   0  0  0  0  0  0  0  0  0  0  0  0
   38.2810   37.3830   61.5740 C   0  0  0  0  0  0  0  0  0  0  0  0
   41.0710   29.2530   62.5570 C   0  0  0  0  0  0  0  0  0  0  0  0
   37.4540   33.8750   58.2820 C   0  0  0  0  0  0  0  0  0  0  0  0
   38.6680   38.8290   61.1620 C   0  0  0  0  0  0  0  0  0  0  0  0
   38.6250   24.5660   56.7830 C   0  0  0  0  0  0  0  0  0  0  0  0
   38.9850   34.7060   61.2140 C   0  0  0  0  0  0  0  0  0  0  0  0
   38.0220   34.1690   55.8950 O   0  0  0  0  0  0  0  0  0  0  0  0
   37.6780   31.8010   56.5060 N   0  0  0  0  0  0  0  0  0  0  0  0
   37.7780   35.3450   60.4350 C   0  0  0  0  0  0  0  0  0  0  0  0
   39.3800   29.6100   53.8650 C   0  0  0  0  0  0  0  0  0  0  0  0
   38.4350   30.6720   58.6170 C   0  0  0  0  0  0  0  0  0  0  0  0
   39.5200   32.4630   62.0240 C   0  0  0  0  0  0  0  0  0  0  0  0
   36.4700   37.2410   59.9230 O   0  0  0  0  0  0  0  0  0  0  0  0
  1 26  1  0
  2 46  1  0
  3 36  1  0
  4 25  1  0
  4  3  1  0
  6 18  2  0
  7 45  1  0
  7 14  1  0
  9 12  1  0
 10  9  1  0
 11 25  1  0
 13 44  1  0
 14 12  1  0
 14  4  1  0
 15 27  2  0
 16 35  1  0
 17 10  1  0
 18 13  2  0
 20  8  1  0
 20 17  1  0
 20 23  1  0
 21 46  2  0
 22 32  1  0
 22 42  1  0
 23  7  1  0
 24 19  1  0
 24 43  1  0
 25 34  1  0
 26 33  2  0
 27  1  1  0
 27  6  1  0
 29 37  2  0
 30 17  1  0
 31  6  1  0
 32 23  1  0
 35  5  1  0
 37 24  2  0
 38 35  1  0
 39 10  2  0
 40 28  2  0
 40  2  1  0
 41 29  2  0
 42 29  1  0
 43 16  1  0
 43 40  1  0
 44  8  1  0
 44 32  1  0
 45 11  1  0
 46 34  1  0
 47 16  2  0
M  END
$$$$

     RDKit          3D

 36 39  0  0  0  0  0  0  0  0999 V2000
   38.4180   28.5830   57.7800 C   0  0  0  0  0  0  0  0  0  0  0  0
   38.7540   31.1320   54.3100 S   0  0  0  0  0  0  0  0  0  0  0  0
   37.1540   37.6890   61.9160 C   0  0  0  0  0  0  0  0  0  0  0  0
   38.6560   29.4690   56.4460 C   0  0  0  0  0  0  0  0  0  0  0  0
   38.8720   24.8440   58.0000 C   0  0  0  0  0  0  0  0  0  0  0  0
   39.1340   29.4430   54.1040 C   0  0  0  0  0  0  0  0  0  0  0  0
   39.5350   28.1660   51.5380 C   0  0  0  0  0  0  0  0  0  0  0  0
   38.0610   32.1530   57.5670 C   0  0  0  0  0  0  0  0  0  0  0  0
   37.6270   31.0730   55.5050 C   0  0  0  0  0  0  0  0  0  0  0  0
   40.0720   30.4830   51.6970 C   0  0  0  0  0  0  0  0  0  0  0  0
   39.3870   34.7240   61.2650 C   0  0  0  0  0  0  0  0  0  0  0  0
   37.1000   35.9310   60.0640 C   0  0  0  0  0  0  0  0  0  0  0  0
   40.0490   30.5800   50.2400 C   0  0  0  0  0  0  0  0  0  0  0  0
   41.1720   30.4700   49.4390 F   0  0  0  0  0  0  0  0  0  0  0  0
   39.7590   29.3850   49.4960 C   0  0  0  0  0  0  0  0  0  0  0  0
   38.2370   31.6270   59.1740 C   0  0  0  0  0  0  0  0  0  0  0  0
   37.7480   36.5270   61.1420 C   0  0  0  0  0  0  0  0  0  0  0  0
   40.7530   34.1200   61.8640 C   0  0  0  0  0  0  0  0  0  0  0  0
   39.3380   27.0260   52.3650 O   0  0  0  0  0  0  0  0  0  0  0  0
   39.4220   30.5240   59.3130 C   0  0  0  0  0  0  0  0  0  0  0  0
   39.6060   29.3640   52.4350 C   0  0  0  0  0  0  0  0  0  0  0  0
   39.4440   28.2100   50.2780 C   0  0  0  0  0  0  0  0  0  0  0  0
   39.3940   29.3540   48.1220 F   0  0  0  0  0  0  0  0  0  0  0  0
   40.6550   26.4470   58.0970 O   0  0  0  0  0  0  0  0  0  0  0  0
   37.8900   30.7750   56.6810 C   0  0  0  0  0  0  0  0  0  0  0  0
   38.3000   27.3040   57.6730 C   0  0  0  0  0  0  0  0  0  0  0  0
   38.3760   28.7610   55.2070 C   0  0  0  0  0  0  0  0  0  0  0  0
   37.5460   38.8630   61.1620 O   0  0  0  0  0  0  0  0  0  0  0  0
   38.6080   33.8930   60.4420 C   0  0  0  0  0  0  0  0  0  0  0  0
   39.7300   36.7980   62.4890 O   0  0  0  0  0  0  0  0  0  0  0  0
   37.5240   34.6620   59.6150 C   0  0  0  0  0  0  0  0  0  0  0  0
   39.3480   31.7190   49.6550 F   0  0  0  0  0  0  0  0  0  0  0  0
   38.4480   32.4760   60.2950 O   0  0  0  0  0  0  0  0  0  0  0  0
   38.8530   29.2850   59.2030 C   0  0  0  0  0  0  0  0  0  0  0  0
   39.3500   26.2100   57.9290 C   0  0  0  0  0  0  0  0  0  0  0  0
   38.9810   36.0340   61.6520 C   0  0  0  0  0  0  0  0  0  0  0  0
  1 26  1  0
  1 34  1  0
  2  9  1  0
  4 27  1  0
  4 25  1  0
  4  1  1  0
  6  2  1  0
  6 27  1  0
  7 19  1  0
  7 21  1  0
  8 16  1  0
 11 36  1  0
 11 18  1  0
 12 17  1  0
 13 10  1  0
 14 13  1  0
 15 13  1  0
 15 22  2  0
 16 20  1  0
 16 33  1  0
 17 36  2  0
 17  3  1  0
 21 10  1  0
 21  6  1  0
 22  7  1  0
 23 15  1  0
 25  9  1  0
 25  8  1  0
 26 35  2  3
 28  3  1  0
 29 11  2  0
 31 12  2  0
 31 29  1  0
 32 13  1  0
 33 29  1  0
 34 20  1  0
 35  5  1  0
 35 24  1  0
 36 30  1  0
M  END
$$$$

     RDKit          3D

 48 53  0  0  0  0  0  0  0  0999 V2000
   38.4350   34.0330   61.1640 O   0  0  0  0  0  0  0  0  0  0  0  0
   39.6470   26.0800   53.9250 C   0  0  0  0  0  0  0  0  0  0  0  0
   39.9250   30.9040   54.9400 C   0  0  0  0  0  0  0  0  0  0  0  0
   37.6100   37.9000   60.0210 C   0  0  0  0  0  0  0  0  0  0  0  0
   35.2650   38.1380   62.8350 O   0  0  0  0  0  0  0  0  0  0  0  0
   39.9510   26.4870   56.5440 C   0  0  0  0  0  0  0  0  0  0  0  0
   38.0000   34.1970   60.3830 C   0  0  0  0  0  0  0  0  0  0  0  0
   38.0390   36.4340   61.3940 O   0  0  0  0  0  0  0  0  0  0  0  0
   39.5090   25.8410   55.2320 C   0  0  0  0  0  0  0  0  0  0  0  0
   36.9440   31.6460   61.5690 O   0  0  0  0  0  0  0  0  0  0  0  0
   40.2610   29.6040   48.5650 C   0  0  0  0  0  0  0  0  0  0  0  0
   40.0740   29.4430   55.5220 N   0  0  0  0  0  0  0  0  0  0  0  0
   38.5170   26.5420   56.0260 N   0  0  0  0  0  0  0  0  0  0  0  0
   39.4110   31.5180   49.6360 C   0  0  0  0  0  0  0  0  0  0  0  0
   38.9260   26.8650   53.0880 C   0  0  0  0  0  0  0  0  0  0  0  0
   38.9740   30.8100   53.8400 C   0  0  0  0  0  0  0  0  0  0  0  0
   39.9620   28.5870   56.4460 N   0  0  0  0  0  0  0  0  0  0  0  0
   39.7830   33.9530   61.7960 C   0  0  0  0  0  0  0  0  0  0  0  0
   40.5190   27.4920   57.3470 C   0  0  0  0  0  0  0  0  0  0  0  0
   39.6370   30.3370   50.4490 C   0  0  0  0  0  0  0  0  0  0  0  0
   40.7350   29.1990   59.3220 C   0  0  0  0  0  0  0  0  0  0  0  0
   38.1160   37.5990   61.0880 C   0  0  0  0  0  0  0  0  0  0  0  0
   38.5610   30.3920   57.9890 C   0  0  0  0  0  0  0  0  0  0  0  0
   39.6500   28.0910   50.7310 C   0  0  0  0  0  0  0  0  0  0  0  0
   36.6040   37.7460   62.9270 C   0  0  0  0  0  0  0  0  0  0  0  0
   37.9760   36.0620   60.6520 C   0  0  0  0  0  0  0  0  0  0  0  0
   38.4510   31.3550   56.9790 C   0  0  0  0  0  0  0  0  0  0  0  0
   40.4110   34.6050   63.1160 C   0  0  0  0  0  0  0  0  0  0  0  0
   40.5430   25.4980   53.3360 O   0  0  0  0  0  0  0  0  0  0  0  0
   39.8600   28.1800   58.5790 C   0  0  0  0  0  0  0  0  0  0  0  0
   40.0400   29.2680   49.8490 C   0  0  0  0  0  0  0  0  0  0  0  0
   39.0990   27.2690   59.5300 C   0  0  0  0  0  0  0  0  0  0  0  0
   35.9620   34.8640   60.1080 C   0  0  0  0  0  0  0  0  0  0  0  0
   37.3400   26.5460   55.1330 C   0  0  0  0  0  0  0  0  0  0  0  0
   39.2980   27.8250   51.3410 C   0  0  0  0  0  0  0  0  0  0  0  0
   39.1660   29.2110   51.8610 C   0  0  0  0  0  0  0  0  0  0  0  0
   39.8250   30.9780   48.3340 O   0  0  0  0  0  0  0  0  0  0  0  0
   37.1480   31.8120   59.3860 N   0  0  0  0  0  0  0  0  0  0  0  0
   35.2660   33.3700   60.7300 S   0  0  0  0  0  0  0  0  0  0  0  0
   37.8700   30.4940   59.1660 C   0  0  0  0  0  0  0  0  0  0  0  0
   37.4720   38.5390   61.7010 C   0  0  0  0  0  0  0  0  0  0  0  0
   36.7940   32.3260   60.6200 C   0  0  0  0  0  0  0  0  0  0  0  0
   37.4870   27.2190   53.7890 C   0  0  0  0  0  0  0  0  0  0  0  0
   39.9050   30.0680   52.8380 C   0  0  0  0  0  0  0  0  0  0  0  0
   40.6570   28.7740   47.8590 O   0  0  0  0  0  0  0  0  0  0  0  0
   38.9710   28.9390   57.5750 C   0  0  0  0  0  0  0  0  0  0  0  0
   38.7480   31.4870   55.5750 C   0  0  0  0  0  0  0  0  0  0  0  0
   37.0250   36.0520   59.3460 C   0  0  0  0  0  0  0  0  0  0  0  0
  1 18  1  0
  3 12  1  0
  3 47  1  0
  5 25  1  0
  6 19  1  0
  7 26  1  0
  7  1  1  0
  9  2  1  0
  9 13  1  0
  9  6  1  0
 11 31  1  0
 13 34  1  0
 13  6  1  0
 14 20  2  0
 15 43  1  0
 15  2  1  0
 16 44  1  0
 16  3  1  0
 16 47  1  0
 17 12  1  0
 17 19  1  0
 17 46  1  0
 18 28  1  0
 19 30  1  0
 22  4  1  0
 22  8  1  0
 22 41  1  0
 23 40  2  3
 24 35  1  0
 26 48  1  0
 26  8  1  0
 27 23  1  0
 29  2  2  0
 30 21  1  0
 30 32  1  0
 31 20  1  0
 31 24  1  0
 33 39  1  0
 35 36  1  0
 36 44  1  0
 37 11  1  0
 37 14  1  0
 38 42  1  0
 40 38  1  0
 41 25  1  0
 42 39  1  0
 42 10  2  0
 43 34  1  0
 45 11  2  0
 46 23  1  0
 46 30  1  0
 47 27  1  0
 48 33  1  0
M  END
$$$$

     RDKit          3D

 23 23  0  0  0  0  0  0  0  0999 V2000
   39.1600   28.2150   52.1030 C   0  0  0  0  0  0  0  0  0  0  0  0
   39.9020   29.9610   55.0230 O   0  0  0  0  0  0  0  0  0  0  0  0
   39.6160   30.6760   52.1510 C   0  0  0  0  0  0  0  0  0  0  0  0
   38.7080   32.2530   56.1060 C   0  0  0  0  0  0  0  0  0  0  0  0
   38.7580   28.9630   57.5830 O   0  0  0  0  0  0  0  0  0  0  0  0
   38.5690   27.0090   52.9250 C   0  0  0  0  0  0  0  0  0  0  0  0
   40.1410   29.3000   50.1160 C   0  0  0  0  0  0  0  0  0  0  0  0
   38.7990   30.1860   59.4090 O   0  0  0  0  0  0  0  0  0  0  0  0
   39.8960   25.7020   54.6230 C   0  0  0  0  0  0  0  0  0  0  0  0
   40.2510   26.8530   57.8770 C   0  0  0  0  0  0  0  0  0  0  0  0
   38.9770   29.6220   54.3490 C   0  0  0  0  0  0  0  0  0  0  0  0
   40.6940   29.3650   48.8980 C   0  0  0  0  0  0  0  0  0  0  0  0
   39.6450   28.1750   50.7690 C   0  0  0  0  0  0  0  0  0  0  0  0
   37.0740   30.3060   55.8700 C   0  0  0  0  0  0  0  0  0  0  0  0
   39.6750   26.8320   54.0060 C   0  0  0  0  0  0  0  0  0  0  0  0
   39.2100   29.5620   52.8070 C   0  0  0  0  0  0  0  0  0  0  0  0
   37.8810   31.0370   56.9180 C   0  0  0  0  0  0  0  0  0  0  0  0
   37.7840   29.4100   54.9430 O   0  0  0  0  0  0  0  0  0  0  0  0
   39.0150   27.6820   57.6760 C   0  0  0  0  0  0  0  0  0  0  0  0
   38.2820   30.0860   58.1000 C   0  0  0  0  0  0  0  0  0  0  0  0
   37.9890   33.4560   55.9100 O   0  0  0  0  0  0  0  0  0  0  0  0
   41.1670   29.5090   48.0120 N   0  0  0  0  0  0  0  0  0  0  0  0
   40.1060   30.5670   50.8010 C   0  0  0  0  0  0  0  0  0  0  0  0
  1 16  1  0
  1  6  1  0
  3 16  2  0
  4 17  1  0
  5 19  1  0
  5 20  1  0
  6 15  1  0
  7 13  1  0
  7 23  2  0
 11 18  1  0
 11  2  2  0
 12  7  1  0
 13  1  2  0
 15  9  2  0
 16 11  1  0
 17 14  1  0
 17 20  1  0
 18 14  1  0
 19 10  1  0
 20  8  2  0
 21  4  1  0
 22 12  3  0
 23  3  1  0
M  END
$$$$

     RDKit          3D

 26 26  0  0  0  0  0  0  0  0999 V2000
   37.7380   38.1400   60.6990 O   0  0  0  0  0  0  0  0  0  0  0  0
   37.3990   36.8770   59.8580 C   0  0  0  0  0  0  0  0  0  0  0  0
   39.9370   30.3050   51.4640 C   0  0  0  0  0  0  0  0  0  0  0  0
   39.2570   30.3080   53.8920 C   0  0  0  0  0  0  0  0  0  0  0  0
   39.2310   29.5030   56.3830 C   0  0  0  0  0  0  0  0  0  0  0  0
   38.3550   31.7740   56.7270 C   0  0  0  0  0  0  0  0  0  0  0  0
   39.2790   33.4860   58.8530 O   0  0  0  0  0  0  0  0  0  0  0  0
   37.9090   30.2880   56.4430 C   0  0  0  0  0  0  0  0  0  0  0  0
   39.4990   27.5460   51.5160 C   0  0  0  0  0  0  0  0  0  0  0  0
   37.7450   32.1590   57.8360 N   0  0  0  0  0  0  0  0  0  0  0  0
   38.5440   37.8780   61.7470 O   0  0  0  0  0  0  0  0  0  0  0  0
   40.0690   29.5110   50.3110 C   0  0  0  0  0  0  0  0  0  0  0  0
   38.1330   30.5240   54.3430 O   0  0  0  0  0  0  0  0  0  0  0  0
   39.4850   29.5720   52.7200 C   0  0  0  0  0  0  0  0  0  0  0  0
   39.8230   28.1950   50.3060 C   0  0  0  0  0  0  0  0  0  0  0  0
   39.2460   28.3420   55.5200 C   0  0  0  0  0  0  0  0  0  0  0  0
   39.3930   28.2260   52.7060 C   0  0  0  0  0  0  0  0  0  0  0  0
   38.9880   27.4820   54.1710 C   0  0  0  0  0  0  0  0  0  0  0  0
   38.1740   33.0480   58.8650 C   0  0  0  0  0  0  0  0  0  0  0  0
   40.5890   30.3190   48.8450 Cl  0  0  0  0  0  0  0  0  0  0  0  0
   36.9760   35.7250   60.7830 C   0  0  0  0  0  0  0  0  0  0  0  0
   39.2420   35.1980   61.5900 C   0  0  0  0  0  0  0  0  0  0  0  0
   37.1710   29.6930   57.7670 C   0  0  0  0  0  0  0  0  0  0  0  0
   38.0580   34.5050   60.9050 C   0  0  0  0  0  0  0  0  0  0  0  0
   37.3550   33.2830   60.1480 C   0  0  0  0  0  0  0  0  0  0  0  0
   37.0860   30.0370   59.2670 C   0  0  0  0  0  0  0  0  0  0  0  0
  1 11  1  0
  2  1  1  0
  2 21  1  0
  3 14  1  0
  4 13  2  0
  6 10  1  0
  7 19  2  0
  8  5  1  0
  8  6  1  0
  8 23  1  0
  9 17  1  0
 10 19  1  0
 12  3  2  0
 14  4  1  0
 15 12  1  0
 15  9  2  0
 16  5  2  0
 17 14  2  0
 17 18  1  0
 18 16  2  0
 19 25  1  0
 20 12  1  0
 21 24  1  0
 23 26  1  0
 24 22  1  0
 25 24  1  0
M  END
$$$$

     RDKit          3D

 25 26  0  0  0  0  0  0  0  0999 V2000
   40.5240   29.8400   49.3890 C   0  0  0  0  0  0  0  0  0  0  0  0
   38.5080   30.9990   56.5020 C   0  0  0  0  0  0  0  0  0  0  0  0
   38.5800   35.5040   61.0620 C   0  0  0  0  0  0  0  0  0  0  0  0
   38.9070   27.7370   53.1770 C   0  0  0  0  0  0  0  0  0  0  0  0
   36.6670   35.7890   59.6770 C   0  0  0  0  0  0  0  0  0  0  0  0
   38.5090   28.1550   51.8140 C   0  0  0  0  0  0  0  0  0  0  0  0
   37.5910   36.5490   60.4140 C   0  0  0  0  0  0  0  0  0  0  0  0
   38.4240   32.1190   57.1450 C   0  0  0  0  0  0  0  0  0  0  0  0
   37.5030   29.9590   56.1680 C   0  0  0  0  0  0  0  0  0  0  0  0
   38.1840   28.5860   54.1630 C   0  0  0  0  0  0  0  0  0  0  0  0
   37.2610   33.3300   58.7870 C   0  0  0  0  0  0  0  0  0  0  0  0
   40.2130   25.8380   54.4430 C   0  0  0  0  0  0  0  0  0  0  0  0
   35.5060   33.7850   60.3020 C   0  0  0  0  0  0  0  0  0  0  0  0
   38.2790   28.6920   55.6970 C   0  0  0  0  0  0  0  0  0  0  0  0
   37.7030   34.3550   61.1100 O   0  0  0  0  0  0  0  0  0  0  0  0
   39.8350   28.6360   49.9470 O   0  0  0  0  0  0  0  0  0  0  0  0
   39.7800   26.6810   53.2910 C   0  0  0  0  0  0  0  0  0  0  0  0
   40.1900   37.1490   62.2380 C   0  0  0  0  0  0  0  0  0  0  0  0
   39.1210   36.0300   62.3590 C   0  0  0  0  0  0  0  0  0  0  0  0
   36.7920   34.3160   59.9150 C   0  0  0  0  0  0  0  0  0  0  0  0
   35.1630   32.6570   61.1610 C   0  0  0  0  0  0  0  0  0  0  0  0
   39.9210   30.2170   51.6490 C   0  0  0  0  0  0  0  0  0  0  0  0
   38.3680   33.3340   57.8300 C   0  0  0  0  0  0  0  0  0  0  0  0
   39.2410   28.9890   51.1740 C   0  0  0  0  0  0  0  0  0  0  0  0
   40.1180   30.8250   50.3350 C   0  0  0  0  0  0  0  0  0  0  0  0
  1 16  1  0
  1 25  1  0
  2  8  1  0
  3 15  1  0
  3 19  1  0
  4 17  2  3
  4 10  1  0
  5 20  1  0
  5  7  1  0
  6  4  1  0
  7  3  1  0
  8 23  1  0
  9  2  1  0
 10 14  1  0
 13 21  1  0
 14  9  1  0
 16 24  1  0
 17 12  1  0
 18 19  1  0
 20 11  1  0
 20 13  1  0
 20 15  1  0
 23 11  1  0
 24 22  1  0
 24  6  1  0
 25 22  1  0
M  END
$$$$

     RDKit          3D

 20 21  0  0  0  0  0  0  0  0999 V2000
   39.1100   29.7860   55.5940 C   0  0  0  0  0  0  0  0  0  0  0  0
   37.1190   31.2390   58.8910 O   0  0  0  0  0  0  0  0  0  0  0  0
   38.8750   31.0360   56.6010 C   0  0  0  0  0  0  0  0  0  0  0  0
   38.2900   33.3670   56.5870 O   0  0  0  0  0  0  0  0  0  0  0  0
   40.1410   27.6130   56.0650 C   0  0  0  0  0  0  0  0  0  0  0  0
   38.6630   28.6860   54.5040 C   0  0  0  0  0  0  0  0  0  0  0  0
   39.4280   30.1110   52.6060 C   0  0  0  0  0  0  0  0  0  0  0  0
   37.6440   30.2790   55.9950 C   0  0  0  0  0  0  0  0  0  0  0  0
   39.2490   27.5250   54.9950 O   0  0  0  0  0  0  0  0  0  0  0  0
   38.0610   32.1410   58.4780 N   0  0  0  0  0  0  0  0  0  0  0  0
   39.0750   28.7900   53.0310 C   0  0  0  0  0  0  0  0  0  0  0  0
   39.3690   31.1320   53.3620 F   0  0  0  0  0  0  0  0  0  0  0  0
   39.1700   25.3090   55.7140 C   0  0  0  0  0  0  0  0  0  0  0  0
   39.9800   29.1940   50.4560 C   0  0  0  0  0  0  0  0  0  0  0  0
   39.2150   27.7370   52.1290 C   0  0  0  0  0  0  0  0  0  0  0  0
   39.6390   27.8700   50.8860 C   0  0  0  0  0  0  0  0  0  0  0  0
   38.4200   32.4720   57.3070 C   0  0  0  0  0  0  0  0  0  0  0  0
   39.8900   30.2820   51.2660 C   0  0  0  0  0  0  0  0  0  0  0  0
   40.6320   29.3090   48.8980 Cl  0  0  0  0  0  0  0  0  0  0  0  0
   40.2390   26.1430   56.6310 C   0  0  0  0  0  0  0  0  0  0  0  0
  1  6  1  0
  1  8  1  0
  1  3  1  0
  3 17  1  0
  4 17  2  0
  5 20  1  0
  6  9  1  0
  7 11  1  0
  7 12  1  0
  8  3  1  0
  9  5  1  0
 10  2  1  0
 11  6  1  0
 13 20  1  0
 14 16  2  0
 14 18  1  0
 15 11  2  0
 16 15  1  0
 17 10  1  0
 18  7  2  0
 19 14  1  0
M  END
$$$$

     RDKit          3D

 27 28  0  0  0  0  0  0  0  0999 V2000
   37.5320   36.6450   60.8470 C   0  0  0  0  0  0  0  0  0  0  0  0
   38.1510   30.9720   56.3250 C   0  0  0  0  0  0  0  0  0  0  0  0
   37.7630   30.1400   57.4950 N   0  0  0  0  0  0  0  0  0  0  0  0
   38.6300   27.0940   51.9100 O   0  0  0  0  0  0  0  0  0  0  0  0
   36.7990   35.6210   60.1430 O   0  0  0  0  0  0  0  0  0  0  0  0
   39.0630   34.5510   61.2060 C   0  0  0  0  0  0  0  0  0  0  0  0
   40.1920   34.0670   62.1810 C   0  0  0  0  0  0  0  0  0  0  0  0
   39.5470   28.8830   50.9580 C   0  0  0  0  0  0  0  0  0  0  0  0
   38.5570   25.1100   56.8890 C   0  0  0  0  0  0  0  0  0  0  0  0
   38.7600   35.9450   61.5860 C   0  0  0  0  0  0  0  0  0  0  0  0
   38.1720   30.5120   54.8520 C   0  0  0  0  0  0  0  0  0  0  0  0
   38.2020   33.3230   58.7890 C   0  0  0  0  0  0  0  0  0  0  0  0
   37.9710   30.8990   58.5990 N   0  0  0  0  0  0  0  0  0  0  0  0
   36.8120   35.6870   58.8530 O   0  0  0  0  0  0  0  0  0  0  0  0
   38.2110   27.9580   54.3690 C   0  0  0  0  0  0  0  0  0  0  0  0
   39.9480   26.4330   54.9850 C   0  0  0  0  0  0  0  0  0  0  0  0
   39.1950   27.6310   50.7090 C   0  0  0  0  0  0  0  0  0  0  0  0
   37.1480   37.7070   60.8410 O   0  0  0  0  0  0  0  0  0  0  0  0
   38.6760   28.1210   52.8410 C   0  0  0  0  0  0  0  0  0  0  0  0
   38.5120   32.2460   56.7390 C   0  0  0  0  0  0  0  0  0  0  0  0
   39.1760   29.2270   52.2830 O   0  0  0  0  0  0  0  0  0  0  0  0
   37.7810   26.0630   55.9700 C   0  0  0  0  0  0  0  0  0  0  0  0
   38.4830   26.5930   54.7910 C   0  0  0  0  0  0  0  0  0  0  0  0
   38.3790   32.2850   58.0900 C   0  0  0  0  0  0  0  0  0  0  0  0
   40.3650   29.8420   49.8180 Cl  0  0  0  0  0  0  0  0  0  0  0  0
   38.5520   33.5350   60.2910 C   0  0  0  0  0  0  0  0  0  0  0  0
   37.8060   29.0750   54.9770 C   0  0  0  0  0  0  0  0  0  0  0  0
  1 10  1  0
  2 20  2  0
  2  3  1  0
  3 13  1  0
  4 19  1  0
  5  1  1  0
  6 10  2  3
  6  7  1  0
  8 21  1  0
 11 27  1  0
 11  2  1  0
 12 26  1  0
 14  5  1  0
 15 23  1  0
 15 27  1  0
 17  8  2  0
 17  4  1  0
 18  1  2  0
 19 15  1  0
 20 24  1  0
 21 19  1  0
 22  9  1  0
 23 16  1  0
 23 22  1  0
 24 13  2  0
 24 12  1  0
 25  8  1  0
 26  6  1  0
M  END
$$$$

     RDKit          3D

 36 40  0  0  0  0  0  0  0  0999 V2000
   35.4840   31.7280   60.7060 C   0  0  0  0  0  0  0  0  0  0  0  0
   39.9070   30.6580   52.1210 C   0  0  0  0  0  0  0  0  0  0  0  0
   38.2530   31.1910   55.0830 C   0  0  0  0  0  0  0  0  0  0  0  0
   37.3200   37.5740   61.9110 C   0  0  0  0  0  0  0  0  0  0  0  0
   38.4380   35.0640   58.9800 S   0  0  0  0  0  0  0  0  0  0  0  0
   40.0740   28.3110   48.3280 C   0  0  0  0  0  0  0  0  0  0  0  0
   39.4740   28.4880   50.7040 C   0  0  0  0  0  0  0  0  0  0  0  0
   39.5200   28.3960   59.3360 C   0  0  0  0  0  0  0  0  0  0  0  0
   36.7880   37.5890   62.8000 O   0  0  0  0  0  0  0  0  0  0  0  0
   39.5270   29.0860   55.1190 C   0  0  0  0  0  0  0  0  0  0  0  0
   38.8890   27.8250   52.0340 C   0  0  0  0  0  0  0  0  0  0  0  0
   40.0170   29.7160   50.7570 C   0  0  0  0  0  0  0  0  0  0  0  0
   38.9120   29.9190   57.4350 C   0  0  0  0  0  0  0  0  0  0  0  0
   36.6540   30.9020   60.7870 N   0  0  0  0  0  0  0  0  0  0  0  0
   38.2180   37.2260   60.6960 C   0  0  0  0  0  0  0  0  0  0  0  0
   35.9260   33.1220   61.1900 C   0  0  0  0  0  0  0  0  0  0  0  0
   39.7090   27.5570   49.3910 N   0  0  0  0  0  0  0  0  0  0  0  0
   38.8580   29.5950   58.8040 C   0  0  0  0  0  0  0  0  0  0  0  0
   37.6000   32.9310   58.1610 N   0  0  0  0  0  0  0  0  0  0  0  0
   39.1590   30.5110   54.3750 N   0  0  0  0  0  0  0  0  0  0  0  0
   40.9540   29.5840   48.4740 C   0  0  0  0  0  0  0  0  0  0  0  0
   39.6650   28.9520   56.4910 C   0  0  0  0  0  0  0  0  0  0  0  0
   37.7960   35.9040   60.2920 N   0  0  0  0  0  0  0  0  0  0  0  0
   39.6790   37.3500   61.1570 C   0  0  0  0  0  0  0  0  0  0  0  0
   38.9610   30.1060   53.0910 C   0  0  0  0  0  0  0  0  0  0  0  0
   37.5880   32.3070   54.5830 O   0  0  0  0  0  0  0  0  0  0  0  0
   40.3840   27.8870   57.1140 C   0  0  0  0  0  0  0  0  0  0  0  0
   39.7130   37.0690   62.5390 O   0  0  0  0  0  0  0  0  0  0  0  0
   40.6360   30.4310   49.5610 C   0  0  0  0  0  0  0  0  0  0  0  0
   37.4250   33.8210   59.1960 C   0  0  0  0  0  0  0  0  0  0  0  0
   38.5070   28.7680   52.9780 C   0  0  0  0  0  0  0  0  0  0  0  0
   38.6090   32.5920   57.3590 N   0  0  0  0  0  0  0  0  0  0  0  0
   37.1060   35.0440   61.1890 N   0  0  0  0  0  0  0  0  0  0  0  0
   40.2630   27.6420   58.4620 C   0  0  0  0  0  0  0  0  0  0  0  0
   38.2800   31.2610   56.7540 C   0  0  0  0  0  0  0  0  0  0  0  0
   36.6260   33.9510   60.4310 C   0  0  0  0  0  0  0  0  0  0  0  0
  1 14  1  0
  1 16  1  0
  3 35  1  0
  4  9  1  0
  5 30  1  0
  5 23  1  0
  6 21  1  0
  6 17  1  0
  7 12  2  0
  7 11  1  0
 10 22  1  0
 11 31  1  0
 12  2  1  0
 13 18  2  0
 15 24  1  0
 15  4  1  0
 17  7  1  0
 18  8  1  0
 20  3  1  0
 20 10  1  0
 21 29  1  0
 22 27  2  0
 22 13  1  0
 23 15  1  0
 23 33  1  0
 24 28  1  0
 25  2  1  0
 25 20  1  0
 26  3  2  0
 27 34  1  0
 29 12  1  0
 30 19  1  0
 30 36  1  0
 31 25  1  0
 32 19  1  0
 34  8  2  0
 35 32  1  0
 35 13  1  0
 36 33  1  0
 36 16  1  0
M  END
$$$$

     RDKit          3D

 35 38  0  0  0  0  0  0  0  0999 V2000
   39.7180   30.7000   53.3090 C   0  0  0  0  0  0  0  0  0  0  0  0
   38.7820   32.9910   57.1600 C   0  0  0  0  0  0  0  0  0  0  0  0
   37.1000   34.1100   60.9110 N   0  0  0  0  0  0  0  0  0  0  0  0
   38.9830   27.6560   56.4440 C   0  0  0  0  0  0  0  0  0  0  0  0
   39.3800   28.2110   48.9160 C   0  0  0  0  0  0  0  0  0  0  0  0
   37.8370   34.1490   59.4370 C   0  0  0  0  0  0  0  0  0  0  0  0
   39.3020   31.5450   53.8900 O   0  0  0  0  0  0  0  0  0  0  0  0
   39.2610   30.1470   47.5450 F   0  0  0  0  0  0  0  0  0  0  0  0
   39.2540   27.8270   50.2830 C   0  0  0  0  0  0  0  0  0  0  0  0
   40.1510   30.9170   51.9190 O   0  0  0  0  0  0  0  0  0  0  0  0
   40.0660   35.6420   63.1370 O   0  0  0  0  0  0  0  0  0  0  0  0
   37.3630   35.2480   60.3680 C   0  0  0  0  0  0  0  0  0  0  0  0
   39.0970   27.2040   55.0770 C   0  0  0  0  0  0  0  0  0  0  0  0
   37.2850   32.2130   60.2860 C   0  0  0  0  0  0  0  0  0  0  0  0
   37.1450   37.2470   61.2680 C   0  0  0  0  0  0  0  0  0  0  0  0
   37.8540   32.6150   59.1650 C   0  0  0  0  0  0  0  0  0  0  0  0
   39.2820   35.9840   61.9770 C   0  0  0  0  0  0  0  0  0  0  0  0
   36.8530   36.4020   60.1720 N   0  0  0  0  0  0  0  0  0  0  0  0
   37.3840   33.0840   61.3080 O   0  0  0  0  0  0  0  0  0  0  0  0
   38.3870   32.0530   58.0150 C   0  0  0  0  0  0  0  0  0  0  0  0
   37.8120   33.6220   56.2180 O   0  0  0  0  0  0  0  0  0  0  0  0
   39.4730   29.4400   54.0490 C   0  0  0  0  0  0  0  0  0  0  0  0
   38.1000   29.6890   57.6970 C   0  0  0  0  0  0  0  0  0  0  0  0
   38.0980   36.7920   62.3060 C   0  0  0  0  0  0  0  0  0  0  0  0
   37.5630   30.9780   57.4320 N   0  0  0  0  0  0  0  0  0  0  0  0
   39.0230   26.6320   57.6530 Cl  0  0  0  0  0  0  0  0  0  0  0  0
   39.3910   28.6980   51.1990 C   0  0  0  0  0  0  0  0  0  0  0  0
   38.8340   29.0320   56.4870 C   0  0  0  0  0  0  0  0  0  0  0  0
   39.8630   30.0820   50.9280 C   0  0  0  0  0  0  0  0  0  0  0  0
   39.4250   28.1180   54.1650 C   0  0  0  0  0  0  0  0  0  0  0  0
   37.8860   37.3070   63.6790 C   0  0  0  0  0  0  0  0  0  0  0  0
   39.5690   29.6340   48.6280 C   0  0  0  0  0  0  0  0  0  0  0  0
   39.5490   29.6510   55.4420 O   0  0  0  0  0  0  0  0  0  0  0  0
   36.4310   38.2850   61.2640 O   0  0  0  0  0  0  0  0  0  0  0  0
   40.0200   30.4220   49.6020 C   0  0  0  0  0  0  0  0  0  0  0  0
  1  7  2  0
  1 22  1  0
  2 20  1  0
  3 19  1  0
  4 28  2  0
  4 26  1  0
  5  9  1  0
  6 12  1  0
  6  3  1  0
  8 32  1  0
  9 27  2  0
 10  1  1  0
 12  3  1  0
 13  4  1  0
 14 19  1  0
 15 24  1  0
 16  6  1  0
 16 14  1  0
 17 24  1  0
 17 11  1  0
 18 12  1  0
 18 15  1  0
 20 16  1  0
 21  2  1  0
 22 30  1  0
 22 33  1  0
 24 31  1  0
 25 23  1  0
 25 20  1  0
 28 23  1  0
 29 27  1  0
 29 10  1  0
 30 13  2  0
 32  5  2  0
 32 35  1  0
 33 28  1  0
 34 15  2  0
 35 29  2  0
M  END
$$$$

     RDKit          3D

 38 40  0  0  0  0  0  0  0  0999 V2000
   38.2660   35.9210   60.7740 C   0  0  0  0  0  0  0  0  0  0  0  0
   38.6040   31.8640   48.6400 C   0  0  0  0  0  0  0  0  0  0  0  0
   38.5870   31.7400   56.6230 C   0  0  0  0  0  0  0  0  0  0  0  0
   37.7860   33.0340   49.0650 C   0  0  0  0  0  0  0  0  0  0  0  0
   37.5950   31.1820   57.4410 N   0  0  0  0  0  0  0  0  0  0  0  0
   39.4850   26.8450   56.4710 C   0  0  0  0  0  0  0  0  0  0  0  0
   37.7890   35.0510   59.9090 N   0  0  0  0  0  0  0  0  0  0  0  0
   40.4280   30.1060   54.1660 C   0  0  0  0  0  0  0  0  0  0  0  0
   37.5320   31.8380   54.0670 O   0  0  0  0  0  0  0  0  0  0  0  0
   38.7460   27.0980   51.8520 O   0  0  0  0  0  0  0  0  0  0  0  0
   39.1980   27.9260   54.0880 C   0  0  0  0  0  0  0  0  0  0  0  0
   40.2140   30.0710   55.6090 C   0  0  0  0  0  0  0  0  0  0  0  0
   37.4510   29.8360   57.6440 C   0  0  0  0  0  0  0  0  0  0  0  0
   39.5850   29.2340   53.5020 N   0  0  0  0  0  0  0  0  0  0  0  0
   38.3840   27.3010   52.9860 C   0  0  0  0  0  0  0  0  0  0  0  0
   37.8560   37.3040   60.9500 C   0  0  0  0  0  0  0  0  0  0  0  0
   39.7190   37.4880   62.5470 C   0  0  0  0  0  0  0  0  0  0  0  0
   37.3660   28.8130   57.0810 O   0  0  0  0  0  0  0  0  0  0  0  0
   38.1780   31.8390   58.6380 C   0  0  0  0  0  0  0  0  0  0  0  0
   40.0890   36.1440   62.3580 C   0  0  0  0  0  0  0  0  0  0  0  0
   38.5280   33.3380   56.0410 C   0  0  0  0  0  0  0  0  0  0  0  0
   39.6530   33.8320   60.8990 S   0  0  0  0  0  0  0  0  0  0  0  0
   37.1930   26.8750   53.2680 O   0  0  0  0  0  0  0  0  0  0  0  0
   39.2590   29.6150   52.1830 C   0  0  0  0  0  0  0  0  0  0  0  0
   38.7180   30.3110   55.6940 C   0  0  0  0  0  0  0  0  0  0  0  0
   38.1780   25.1480   55.2010 C   0  0  0  0  0  0  0  0  0  0  0  0
   37.6470   30.5630   54.7320 O   0  0  0  0  0  0  0  0  0  0  0  0
   39.5480   31.4360   49.5760 N   0  0  0  0  0  0  0  0  0  0  0  0
   37.9740   33.1170   58.6260 C   0  0  0  0  0  0  0  0  0  0  0  0
   39.4030   35.3890   61.4280 C   0  0  0  0  0  0  0  0  0  0  0  0
   36.6990   37.6620   60.4220 O   0  0  0  0  0  0  0  0  0  0  0  0
   39.0160   31.1100   51.9950 C   0  0  0  0  0  0  0  0  0  0  0  0
   38.3580   33.9020   59.7420 C   0  0  0  0  0  0  0  0  0  0  0  0
   39.5920   25.2250   54.6230 C   0  0  0  0  0  0  0  0  0  0  0  0
   38.7270   26.5070   55.1530 C   0  0  0  0  0  0  0  0  0  0  0  0
   36.9640   29.6570   58.9910 O   0  0  0  0  0  0  0  0  0  0  0  0
   38.5840   38.0710   61.8630 C   0  0  0  0  0  0  0  0  0  0  0  0
   39.3710   31.7290   50.8530 C   0  0  0  0  0  0  0  0  0  0  0  0
  1 16  2  0
  1 30  1  0
  2  4  1  0
  2 28  1  0
  3 21  1  0
  3  5  1  0
  5 13  1  0
  5 19  1  0
  7  1  1  0
  8 12  1  0
  9 27  1  0
 10 15  2  0
 11 15  1  0
 11 35  1  0
 13 36  1  0
 14 11  1  0
 14  8  1  0
 15 23  1  0
 16 37  1  0
 18 13  2  0
 20 17  1  0
 22 30  1  0
 24 14  1  0
 25 12  1  0
 25  3  1  0
 27 25  1  0
 28 38  1  0
 29 19  1  0
 29 33  1  0
 30 20  2  0
 31 16  1  0
 32 24  1  0
 33  7  2  0
 33 22  1  0
 34 35  1  0
 34 26  1  0
 35 26  1  0
 35  6  1  0
 37 17  2  0
 38 32  1  0
M  END
$$$$

     RDKit          3D

 34 34  0  0  0  0  0  0  0  0999 V2000
   40.3930   30.3500   49.2790 N   0  0  0  0  0  0  0  0  0  0  0  0
   36.8440   36.9090   60.3120 S   0  0  0  0  0  0  0  0  0  0  0  0
   39.6890   30.4140   52.6940 C   0  0  0  0  0  0  0  0  0  0  0  0
   39.5260   26.1800   55.2100 C   0  0  0  0  0  0  0  0  0  0  0  0
   39.1460   28.9810   52.6290 C   0  0  0  0  0  0  0  0  0  0  0  0
   37.3190   33.2850   58.7550 C   0  0  0  0  0  0  0  0  0  0  0  0
   37.9870   31.4260   57.4400 N   0  0  0  0  0  0  0  0  0  0  0  0
   37.9600   32.8120   57.3450 C   0  0  0  0  0  0  0  0  0  0  0  0
   39.8870   34.8780   61.0660 C   0  0  0  0  0  0  0  0  0  0  0  0
   38.2360   33.6240   56.4300 O   0  0  0  0  0  0  0  0  0  0  0  0
   38.7040   31.3520   55.2020 C   0  0  0  0  0  0  0  0  0  0  0  0
   41.3860   35.3380   61.1070 C   0  0  0  0  0  0  0  0  0  0  0  0
   36.7360   37.6170   61.7270 O   0  0  0  0  0  0  0  0  0  0  0  0
   39.5240   37.0720   62.3280 C   0  0  0  0  0  0  0  0  0  0  0  0
   35.9050   36.4870   59.2370 O   0  0  0  0  0  0  0  0  0  0  0  0
   38.3770   30.5300   56.4520 C   0  0  0  0  0  0  0  0  0  0  0  0
   38.6770   28.0690   51.3850 C   0  0  0  0  0  0  0  0  0  0  0  0
   39.6170   26.3940   56.6230 C   0  0  0  0  0  0  0  0  0  0  0  0
   39.2300   27.2240   54.0550 C   0  0  0  0  0  0  0  0  0  0  0  0
   38.8840   35.8410   61.5910 C   0  0  0  0  0  0  0  0  0  0  0  0
   39.5420   31.0030   53.9900 C   0  0  0  0  0  0  0  0  0  0  0  0
   35.2370   32.5310   60.2610 C   0  0  0  0  0  0  0  0  0  0  0  0
   36.8700   34.2410   61.2010 C   0  0  0  0  0  0  0  0  0  0  0  0
   40.0720   29.6200   49.9800 C   0  0  0  0  0  0  0  0  0  0  0  0
   40.1160   26.2670   53.4360 O   0  0  0  0  0  0  0  0  0  0  0  0
   40.1350   25.1570   54.5180 C   0  0  0  0  0  0  0  0  0  0  0  0
   37.6610   37.8870   59.4610 O   0  0  0  0  0  0  0  0  0  0  0  0
   39.6550   33.6120   61.6910 O   0  0  0  0  0  0  0  0  0  0  0  0
   38.5450   27.9180   56.1100 O   0  0  0  0  0  0  0  0  0  0  0  0
   38.9560   28.4420   53.9470 C   0  0  0  0  0  0  0  0  0  0  0  0
   37.6390   35.5280   60.8900 N   0  0  0  0  0  0  0  0  0  0  0  0
   39.8850   28.2730   50.4120 C   0  0  0  0  0  0  0  0  0  0  0  0
   38.0610   28.7560   55.1000 C   0  0  0  0  0  0  0  0  0  0  0  0
   36.2740   33.7270   59.8340 C   0  0  0  0  0  0  0  0  0  0  0  0
  1 24  2  0
  2 31  1  0
  2 13  1  0
  3 21  1  0
  4 18  1  0
  5 17  1  0
  5  3  1  0
  5 30  1  0
  6 34  1  0
  8  7  1  0
  8  6  1  0
  9 12  1  0
  9 20  1  0
  9 28  1  0
 10  8  2  0
 11 16  1  0
 15  2  1  0
 16  7  1  0
 19 30  1  0
 19  4  1  0
 20 14  1  0
 21 11  1  0
 24 32  1  0
 25 19  1  0
 25 26  1  0
 26  4  1  0
 27  2  1  0
 30 33  1  0
 31 23  1  0
 31 20  1  0
 32 17  1  0
 33 29  1  0
 34 22  1  0
 34 23  1  0
M  END
$$$$

     RDKit          3D

 24 25  0  0  0  0  0  0  0  0999 V2000
   39.2940   29.1520   57.6170 C   0  0  0  0  0  0  0  0  0  0  0  0
   37.9480   33.6730   55.5040 O   0  0  0  0  0  0  0  0  0  0  0  0
   39.4340   31.2120   49.4400 O   0  0  0  0  0  0  0  0  0  0  0  0
   40.6460   26.8550   57.1420 C   0  0  0  0  0  0  0  0  0  0  0  0
   37.8330   30.7370   55.5960 C   0  0  0  0  0  0  0  0  0  0  0  0
   41.4800   29.1230   48.0220 C   0  0  0  0  0  0  0  0  0  0  0  0
   40.6490   27.3490   58.4640 C   0  0  0  0  0  0  0  0  0  0  0  0
   39.0260   31.6180   55.7840 C   0  0  0  0  0  0  0  0  0  0  0  0
   38.9950   28.5240   52.2200 C   0  0  0  0  0  0  0  0  0  0  0  0
   37.3760   26.9510   53.5870 C   0  0  0  0  0  0  0  0  0  0  0  0
   40.0310   30.1590   49.4380 C   0  0  0  0  0  0  0  0  0  0  0  0
   38.4430   32.8130   56.3180 C   0  0  0  0  0  0  0  0  0  0  0  0
   39.0830   27.4290   51.1690 C   0  0  0  0  0  0  0  0  0  0  0  0
   39.9410   28.6090   58.6850 C   0  0  0  0  0  0  0  0  0  0  0  0
   40.0090   27.5350   56.1190 C   0  0  0  0  0  0  0  0  0  0  0  0
   40.3430   29.3400   50.6210 C   0  0  0  0  0  0  0  0  0  0  0  0
   39.3280   28.6430   56.3650 C   0  0  0  0  0  0  0  0  0  0  0  0
   39.5420   29.7070   51.7120 O   0  0  0  0  0  0  0  0  0  0  0  0
   38.4080   29.4250   55.2920 C   0  0  0  0  0  0  0  0  0  0  0  0
   40.2300   27.9450   50.3580 C   0  0  0  0  0  0  0  0  0  0  0  0
   40.6140   29.6760   48.4170 N   0  0  0  0  0  0  0  0  0  0  0  0
   38.3270   28.0820   53.3800 C   0  0  0  0  0  0  0  0  0  0  0  0
   38.8110   29.0880   54.0740 O   0  0  0  0  0  0  0  0  0  0  0  0
   38.3620   32.9270   57.5940 O   0  0  0  0  0  0  0  0  0  0  0  0
  1 14  1  0
  2 12  2  0
  4  7  1  0
  5  8  1  0
  6 21  2  0
  7 14  2  0
  8 12  1  0
  9 22  1  0
 11  3  2  0
 12 24  1  0
 13  9  1  0
 15 17  1  0
 15  4  2  0
 16 11  1  0
 16 18  1  0
 17  1  2  0
 18  9  1  0
 19  5  1  0
 19 17  1  0
 20 16  1  0
 20 13  1  0
 21 11  1  0
 22 10  1  0
 22 23  1  0
 23 19  1  0
M  END
$$$$

     RDKit          3D

 28 30  0  0  0  0  0  0  0  0999 V2000
   39.2850   31.1610   54.9260 C   0  0  0  0  0  0  0  0  0  0  0  0
   36.4350   38.0390   61.0300 O   0  0  0  0  0  0  0  0  0  0  0  0
   36.4090   31.2390   60.2440 C   0  0  0  0  0  0  0  0  0  0  0  0
   37.8780   36.0530   60.4090 C   0  0  0  0  0  0  0  0  0  0  0  0
   38.1310   31.6760   55.7360 C   0  0  0  0  0  0  0  0  0  0  0  0
   36.2670   33.6100   60.4480 O   0  0  0  0  0  0  0  0  0  0  0  0
   40.7850   34.9050   62.5650 C   0  0  0  0  0  0  0  0  0  0  0  0
   36.8140   38.1610   59.0200 O   0  0  0  0  0  0  0  0  0  0  0  0
   39.8080   35.7090   62.0250 C   0  0  0  0  0  0  0  0  0  0  0  0
   39.9930   26.5990   58.0590 C   0  0  0  0  0  0  0  0  0  0  0  0
   38.8290   27.8780   56.3900 C   0  0  0  0  0  0  0  0  0  0  0  0
   37.5000   33.2310   59.9890 C   0  0  0  0  0  0  0  0  0  0  0  0
   36.7320   36.0660   59.9160 C   0  0  0  0  0  0  0  0  0  0  0  0
   36.6300   37.4220   59.9720 C   0  0  0  0  0  0  0  0  0  0  0  0
   36.9480   29.4330   54.5840 O   0  0  0  0  0  0  0  0  0  0  0  0
   38.2880   33.5900   56.5980 C   0  0  0  0  0  0  0  0  0  0  0  0
   41.6500   32.6700   62.8270 C   0  0  0  0  0  0  0  0  0  0  0  0
   39.6250   32.8960   61.5430 N   0  0  0  0  0  0  0  0  0  0  0  0
   38.6790   33.6150   60.9520 C   0  0  0  0  0  0  0  0  0  0  0  0
   39.3650   26.5380   56.5840 C   0  0  0  0  0  0  0  0  0  0  0  0
   37.6710   31.8150   59.5140 C   0  0  0  0  0  0  0  0  0  0  0  0
   37.9720   32.2050   56.9540 C   0  0  0  0  0  0  0  0  0  0  0  0
   38.4800   31.7720   58.3310 C   0  0  0  0  0  0  0  0  0  0  0  0
   35.4780   32.3800   60.4800 C   0  0  0  0  0  0  0  0  0  0  0  0
   37.8160   29.9560   55.3740 C   0  0  0  0  0  0  0  0  0  0  0  0
   38.7310   35.1770   61.0960 C   0  0  0  0  0  0  0  0  0  0  0  0
   40.7380   33.4200   62.3490 C   0  0  0  0  0  0  0  0  0  0  0  0
   38.2820   29.3150   56.5310 O   0  0  0  0  0  0  0  0  0  0  0  0
  1 25  1  0
  1  5  1  0
  3 24  1  0
  4 26  1  0
  5 22  1  0
  6 24  1  0
  8 14  2  0
  9  7  2  0
 11 28  1  0
 11 20  1  0
 12  6  1  0
 12 19  1  0
 13 14  1  0
 13  4  1  0
 14  2  1  0
 18 27  2  0
 19 26  2  0
 19 18  1  0
 20 10  1  0
 21 23  1  0
 21 12  1  0
 21  3  1  0
 22 16  1  0
 22 23  1  0
 25 15  1  0
 25  5  1  0
 25 28  1  0
 26  9  1  0
 27  7  1  0
 27 17  1  0
M  END
$$$$

     RDKit          3D

 30 32  0  0  0  0  0  0  0  0999 V2000
   39.0780   23.6650   56.2880 Cl  0  0  0  0  0  0  0  0  0  0  0  0
   40.2840   29.7070   49.2680 O   0  0  0  0  0  0  0  0  0  0  0  0
   38.8180   27.4150   53.6750 C   0  0  0  0  0  0  0  0  0  0  0  0
   38.9690   25.0810   55.2030 C   0  0  0  0  0  0  0  0  0  0  0  0
   38.7620   30.7390   56.6170 C   0  0  0  0  0  0  0  0  0  0  0  0
   39.7170   28.3380   49.0420 C   0  0  0  0  0  0  0  0  0  0  0  0
   38.6420   32.8650   58.3550 C   0  0  0  0  0  0  0  0  0  0  0  0
   37.1290   29.6890   55.4100 O   0  0  0  0  0  0  0  0  0  0  0  0
   39.4820   31.5120   49.0000 C   0  0  0  0  0  0  0  0  0  0  0  0
   38.9270   29.8010   53.8630 C   0  0  0  0  0  0  0  0  0  0  0  0
   37.6310   25.6530   54.8810 C   0  0  0  0  0  0  0  0  0  0  0  0
   40.8430   27.7570   48.7250 O   0  0  0  0  0  0  0  0  0  0  0  0
   37.3900   28.9780   58.2060 C   0  0  0  0  0  0  0  0  0  0  0  0
   37.6510   26.7160   54.1290 C   0  0  0  0  0  0  0  0  0  0  0  0
   38.6300   32.1630   56.1710 C   0  0  0  0  0  0  0  0  0  0  0  0
   39.1340   28.3340   51.5060 C   0  0  0  0  0  0  0  0  0  0  0  0
   39.3830   30.8130   52.9790 C   0  0  0  0  0  0  0  0  0  0  0  0
   37.7230   30.4000   57.7920 C   0  0  0  0  0  0  0  0  0  0  0  0
   39.3720   27.7370   50.1670 C   0  0  0  0  0  0  0  0  0  0  0  0
   37.8410   33.1030   57.1760 C   0  0  0  0  0  0  0  0  0  0  0  0
   41.2430   24.9880   54.7750 F   0  0  0  0  0  0  0  0  0  0  0  0
   40.0870   26.8370   53.9890 C   0  0  0  0  0  0  0  0  0  0  0  0
   39.1110   26.5230   49.8960 O   0  0  0  0  0  0  0  0  0  0  0  0
   39.6810   30.4510   50.1870 C   0  0  0  0  0  0  0  0  0  0  0  0
   38.4790   29.7490   55.3600 C   0  0  0  0  0  0  0  0  0  0  0  0
   40.1210   25.6560   54.6810 C   0  0  0  0  0  0  0  0  0  0  0  0
   39.5820   30.5190   51.3990 C   0  0  0  0  0  0  0  0  0  0  0  0
   38.3950   31.2350   58.8010 O   0  0  0  0  0  0  0  0  0  0  0  0
   39.4560   31.8070   52.8380 O   0  0  0  0  0  0  0  0  0  0  0  0
   38.8040   28.5400   52.8580 C   0  0  0  0  0  0  0  0  0  0  0  0
  2 24  1  0
  3 22  2  0
  3 14  1  0
  4  1  1  0
  5 25  1  0
  5 18  1  0
  6 12  1  0
  6  2  1  0
  6 19  1  0
  7 28  1  0
  9 24  1  0
 10 25  1  0
 11  4  1  0
 14 11  2  0
 15  5  1  0
 15 20  1  0
 16 30  2  0
 17 10  1  0
 18 13  1  0
 18 28  1  0
 19 16  2  0
 20  7  1  0
 22 26  1  0
 23 19  1  0
 24 27  2  0
 25  8  1  0
 26 21  1  0
 26  4  2  0
 27 17  2  0
 29 17  1  0
 30  3  1  0
 30 10  1  0
M  END
$$$$

     RDKit          3D

 24 25  0  0  0  0  0  0  0  0999 V2000
   39.9720   27.9310   49.2670 N   0  0  0  0  0  0  0  0  0  0  0  0
   40.3000   29.9940   50.3480 C   0  0  0  0  0  0  0  0  0  0  0  0
   39.6850   29.6060   51.5850 C   0  0  0  0  0  0  0  0  0  0  0  0
   38.7290   30.0720   57.3620 C   0  0  0  0  0  0  0  0  0  0  0  0
   36.6050   29.2480   58.3610 O   0  0  0  0  0  0  0  0  0  0  0  0
   38.7360   29.1130   54.3510 C   0  0  0  0  0  0  0  0  0  0  0  0
   39.2990   30.2740   53.7900 C   0  0  0  0  0  0  0  0  0  0  0  0
   38.9800   28.4130   52.1730 C   0  0  0  0  0  0  0  0  0  0  0  0
   38.6770   32.6750   56.7810 C   0  0  0  0  0  0  0  0  0  0  0  0
   38.1420   33.0240   58.1830 C   0  0  0  0  0  0  0  0  0  0  0  0
   38.2850   29.3630   59.5620 O   0  0  0  0  0  0  0  0  0  0  0  0
   38.6260   27.5540   51.3370 C   0  0  0  0  0  0  0  0  0  0  0  0
   37.7640   29.5210   58.4770 C   0  0  0  0  0  0  0  0  0  0  0  0
   39.3510   26.2740   57.2180 C   0  0  0  0  0  0  0  0  0  0  0  0
   39.2370   27.2270   50.0990 C   0  0  0  0  0  0  0  0  0  0  0  0
   38.1800   33.6770   55.8800 O   0  0  0  0  0  0  0  0  0  0  0  0
   39.3210   28.8260   56.5390 C   0  0  0  0  0  0  0  0  0  0  0  0
   39.9390   27.6280   57.3140 C   0  0  0  0  0  0  0  0  0  0  0  0
   40.3930   29.1850   49.1020 N   0  0  0  0  0  0  0  0  0  0  0  0
   38.7030   28.1630   53.3280 N   0  0  0  0  0  0  0  0  0  0  0  0
   39.7440   30.5460   52.5830 C   0  0  0  0  0  0  0  0  0  0  0  0
   40.9190   29.5870   47.9960 N   0  0  0  0  0  0  0  0  0  0  0  0
   38.2730   28.3830   55.5550 C   0  0  0  0  0  0  0  0  0  0  0  0
   38.0340   31.2030   56.4960 C   0  0  0  0  0  0  0  0  0  0  0  0
  1 15  2  0
  2  3  2  0
  3  8  1  0
  3 21  1  0
  4 24  1  0
  4 13  1  0
  5 13  2  0
  6 23  1  0
  7  6  1  0
  8 20  1  0
  9 10  1  0
 12  8  2  0
 13 11  1  0
 14 18  1  0
 15 12  1  0
 16  9  1  0
 17 23  1  0
 17 18  1  0
 17  4  1  0
 19  1  1  0
 19  2  1  0
 20  6  2  0
 21  7  2  0
 22 19  1  0
 24  9  1  0
M  END
$$$$

     RDKit          3D

 37 39  0  0  0  0  0  0  0  0999 V2000
   38.7110   30.9660   56.8850 C   0  0  0  0  0  0  0  0  0  0  0  0
   36.7720   37.1390   59.4490 O   0  0  0  0  0  0  0  0  0  0  0  0
   37.4430   26.5970   54.2720 C   0  0  0  0  0  0  0  0  0  0  0  0
   37.2240   36.7390   60.5850 C   0  0  0  0  0  0  0  0  0  0  0  0
   39.9880   30.3760   48.9490 C   0  0  0  0  0  0  0  0  0  0  0  0
   38.3130   33.2360   59.8900 C   0  0  0  0  0  0  0  0  0  0  0  0
   38.9580   32.6960   48.6870 C   0  0  0  0  0  0  0  0  0  0  0  0
   39.5130   31.7910   61.3470 O   0  0  0  0  0  0  0  0  0  0  0  0
   38.6290   28.1810   52.7200 C   0  0  0  0  0  0  0  0  0  0  0  0
   39.7300   34.0840   61.7140 C   0  0  0  0  0  0  0  0  0  0  0  0
   39.0830   27.8150   59.0910 C   0  0  0  0  0  0  0  0  0  0  0  0
   38.2670   32.1320   58.9870 N   0  0  0  0  0  0  0  0  0  0  0  0
   38.1590   33.6500   49.1290 N   0  0  0  0  0  0  0  0  0  0  0  0
   37.4400   29.2090   53.5730 S   0  0  0  0  0  0  0  0  0  0  0  0
   36.9380   37.1880   61.6250 O   0  0  0  0  0  0  0  0  0  0  0  0
   38.0480   33.2500   57.0220 O   0  0  0  0  0  0  0  0  0  0  0  0
   39.3840   31.4680   49.5050 C   0  0  0  0  0  0  0  0  0  0  0  0
   40.2690   27.7600   56.9520 C   0  0  0  0  0  0  0  0  0  0  0  0
   38.7630   27.0790   53.7640 C   0  0  0  0  0  0  0  0  0  0  0  0
   39.5360   28.7110   57.9160 C   0  0  0  0  0  0  0  0  0  0  0  0
   39.8640   28.8920   52.3890 C   0  0  0  0  0  0  0  0  0  0  0  0
   39.8190   26.3720   57.0610 C   0  0  0  0  0  0  0  0  0  0  0  0
   39.4000   32.7460   47.4510 O   0  0  0  0  0  0  0  0  0  0  0  0
   39.2390   35.4140   61.4520 C   0  0  0  0  0  0  0  0  0  0  0  0
   39.1590   31.3040   51.1480 S   0  0  0  0  0  0  0  0  0  0  0  0
   37.7740   34.5180   59.6900 C   0  0  0  0  0  0  0  0  0  0  0  0
   39.7970   29.7680   51.1210 C   0  0  0  0  0  0  0  0  0  0  0  0
   39.2530   33.0250   60.9990 C   0  0  0  0  0  0  0  0  0  0  0  0
   40.2080   29.3880   49.8560 C   0  0  0  0  0  0  0  0  0  0  0  0
   38.2680   32.1720   57.6470 C   0  0  0  0  0  0  0  0  0  0  0  0
   38.1210   35.5350   60.5840 C   0  0  0  0  0  0  0  0  0  0  0  0
   38.4510   31.0320   55.3480 C   0  0  0  0  0  0  0  0  0  0  0  0
   37.5790   26.1510   55.7760 C   0  0  0  0  0  0  0  0  0  0  0  0
   37.5310   29.9640   55.0130 O   0  0  0  0  0  0  0  0  0  0  0  0
   39.7690   30.9380   54.6180 C   0  0  0  0  0  0  0  0  0  0  0  0
   38.4410   29.5080   57.4250 C   0  0  0  0  0  0  0  0  0  0  0  0
   38.9300   25.5670   56.0440 C   0  0  0  0  0  0  0  0  0  0  0  0
  1 36  1  0
  1 30  1  0
  2  4  2  0
  3 33  1  0
  4 15  1  0
  5 17  2  0
  5 29  1  0
  6 28  1  0
  7 13  1  0
  7 17  1  0
  9 21  1  0
  9 14  1  0
  9 19  1  0
 12  6  1  0
 14 34  1  0
 16 30  2  0
 17 25  1  0
 18 22  1  0
 18 20  1  0
 19  3  1  0
 20 11  1  0
 23  7  2  0
 24 10  1  0
 26  6  2  0
 26 31  1  0
 27 25  1  0
 27 21  1  0
 28  8  1  0
 28 10  2  0
 29 27  2  0
 30 12  1  0
 31  4  1  0
 31 24  2  0
 32 35  1  0
 32  1  1  0
 33 37  1  0
 34 32  1  0
 36 20  1  0
 37 22  1  0
M  END
$$$$

     RDKit          3D

 39 40  0  0  0  0  0  0  0  0999 V2000
   38.3030   31.5790   55.5150 C   0  0  0  0  0  0  0  0  0  0  0  0
   38.4830   32.3880   56.3590 O   0  0  0  0  0  0  0  0  0  0  0  0
   39.7370   26.9220   50.1940 C   0  0  0  0  0  0  0  0  0  0  0  0
   39.6610   35.0350   62.1500 C   0  0  0  0  0  0  0  0  0  0  0  0
   40.0650   29.0740   57.2960 O   0  0  0  0  0  0  0  0  0  0  0  0
   35.9320   33.9370   59.8560 C   0  0  0  0  0  0  0  0  0  0  0  0
   35.2600   32.9410   60.3750 N   0  0  0  0  0  0  0  0  0  0  0  0
   35.4790   34.6730   58.8970 O   0  0  0  0  0  0  0  0  0  0  0  0
   37.2410   26.3660   54.2190 O   0  0  0  0  0  0  0  0  0  0  0  0
   40.9570   35.4820   62.7530 C   0  0  0  0  0  0  0  0  0  0  0  0
   39.4930   27.2920   51.5940 C   0  0  0  0  0  0  0  0  0  0  0  0
   38.4980   30.8250   58.0490 C   0  0  0  0  0  0  0  0  0  0  0  0
   39.5020   29.4070   54.7500 C   0  0  0  0  0  0  0  0  0  0  0  0
   38.3570   33.8480   60.3760 C   0  0  0  0  0  0  0  0  0  0  0  0
   37.2330   34.3700   60.5150 C   0  0  0  0  0  0  0  0  0  0  0  0
   38.9120   29.2620   50.4880 C   0  0  0  0  0  0  0  0  0  0  0  0
   38.2980   28.8300   52.8550 C   0  0  0  0  0  0  0  0  0  0  0  0
   36.8640   29.3650   53.1360 C   0  0  0  0  0  0  0  0  0  0  0  0
   38.2820   31.9250   58.5510 C   0  0  0  0  0  0  0  0  0  0  0  0
   38.1210   27.2640   54.9590 S   0  0  0  0  0  0  0  0  0  0  0  0
   39.7060   30.5560   60.7920 O   0  0  0  0  0  0  0  0  0  0  0  0
   38.8620   30.2180   55.8180 N   0  0  0  0  0  0  0  0  0  0  0  0
   39.0280   26.5030   55.8360 O   0  0  0  0  0  0  0  0  0  0  0  0
   39.6670   28.8850   48.0710 O   0  0  0  0  0  0  0  0  0  0  0  0
   39.4150   31.3240   50.9930 F   0  0  0  0  0  0  0  0  0  0  0  0
   39.7450   36.3580   62.8020 C   0  0  0  0  0  0  0  0  0  0  0  0
   38.6380   31.4560   60.9370 C   0  0  0  0  0  0  0  0  0  0  0  0
   38.5230   32.4950   59.8430 C   0  0  0  0  0  0  0  0  0  0  0  0
   39.1860   29.9120   57.1110 C   0  0  0  0  0  0  0  0  0  0  0  0
   36.8490   35.5690   61.3780 C   0  0  0  0  0  0  0  0  0  0  0  0
   41.4560   29.7520   49.5900 C   0  0  0  0  0  0  0  0  0  0  0  0
   38.9040   28.2420   54.2670 C   0  0  0  0  0  0  0  0  0  0  0  0
   37.6150   37.5100   60.0790 O   0  0  0  0  0  0  0  0  0  0  0  0
   39.8310   34.5120   60.7210 C   0  0  0  0  0  0  0  0  0  0  0  0
   40.1650   30.2260   50.4830 C   0  0  0  0  0  0  0  0  0  0  0  0
   36.9190   37.0590   60.9570 C   0  0  0  0  0  0  0  0  0  0  0  0
   39.1120   28.2820   49.4180 C   0  0  0  0  0  0  0  0  0  0  0  0
   36.3420   37.8130   61.9400 O   0  0  0  0  0  0  0  0  0  0  0  0
   38.8650   28.5490   51.7360 N   0  0  0  0  0  0  0  0  0  0  0  0
  1 22  1  0
  1  2  1  0
  3 11  1  0
  4 10  1  0
  4 26  1  0
  6  7  1  0
  6 15  1  0
  8  6  2  0
  9 20  1  0
 10 26  1  0
 11 39  1  0
 12 19  1  0
 13 22  1  0
 14 15  1  0
 14 34  1  0
 15 30  1  0
 16 35  1  0
 16 39  1  0
 17 18  1  0
 17 32  1  0
 20 23  1  0
 21 27  1  0
 22 29  1  0
 28 19  1  0
 28 14  1  0
 28 27  1  0
 29  5  2  0
 29 12  1  0
 32 13  1  0
 32 20  1  0
 33 36  2  0
 34  4  1  0
 35 31  1  0
 35 25  1  0
 36 30  1  0
 36 38  1  0
 37 24  1  0
 37  3  1  0
 37 16  1  0
 39 17  1  0
M  END
$$$$

     RDKit          3D

 37 40  0  0  0  0  0  0  0  0999 V2000
   36.3950   35.0930   59.5040 O   0  0  0  0  0  0  0  0  0  0  0  0
   39.8920   29.0050   51.3580 C   0  0  0  0  0  0  0  0  0  0  0  0
   39.2320   27.9090   52.3890 C   0  0  0  0  0  0  0  0  0  0  0  0
   37.9460   36.1980   60.9500 C   0  0  0  0  0  0  0  0  0  0  0  0
   38.4370   39.1510   61.2920 O   0  0  0  0  0  0  0  0  0  0  0  0
   38.7670   28.3140   57.9940 C   0  0  0  0  0  0  0  0  0  0  0  0
   39.3080   30.3180   52.8410 C   0  0  0  0  0  0  0  0  0  0  0  0
   39.6500   31.0710   50.5750 C   0  0  0  0  0  0  0  0  0  0  0  0
   38.3870   32.4590   60.4190 C   0  0  0  0  0  0  0  0  0  0  0  0
   37.7210   31.1890   58.2790 C   0  0  0  0  0  0  0  0  0  0  0  0
   37.8210   33.7430   60.9420 N   0  0  0  0  0  0  0  0  0  0  0  0
   37.6880   36.2360   62.5450 C   0  0  0  0  0  0  0  0  0  0  0  0
   39.3520   31.0470   54.2020 C   0  0  0  0  0  0  0  0  0  0  0  0
   38.1060   27.1690   57.2610 C   0  0  0  0  0  0  0  0  0  0  0  0
   36.1270   38.2180   62.0720 C   0  0  0  0  0  0  0  0  0  0  0  0
   37.1400   38.6310   60.9470 C   0  0  0  0  0  0  0  0  0  0  0  0
   35.9430   31.6840   60.1670 C   0  0  0  0  0  0  0  0  0  0  0  0
   38.9210   26.2930   54.3330 C   0  0  0  0  0  0  0  0  0  0  0  0
   37.4190   31.3590   59.7880 C   0  0  0  0  0  0  0  0  0  0  0  0
   39.8130   26.9090   52.4520 C   0  0  0  0  0  0  0  0  0  0  0  0
   36.6170   37.1500   63.0730 C   0  0  0  0  0  0  0  0  0  0  0  0
   38.9530   31.4410   56.4290 C   0  0  0  0  0  0  0  0  0  0  0  0
   37.4840   28.6320   58.9090 C   0  0  0  0  0  0  0  0  0  0  0  0
   40.5800   30.2320   49.5150 C   0  0  0  0  0  0  0  0  0  0  0  0
   37.1270   34.9390   60.5270 C   0  0  0  0  0  0  0  0  0  0  0  0
   37.4770   37.3620   60.1020 C   0  0  0  0  0  0  0  0  0  0  0  0
   37.6330   29.7710   59.9320 C   0  0  0  0  0  0  0  0  0  0  0  0
   38.5620   25.1420   56.4410 C   0  0  0  0  0  0  0  0  0  0  0  0
   39.9200   28.7570   50.1020 C   0  0  0  0  0  0  0  0  0  0  0  0
   37.6720   26.0820   56.9360 C   0  0  0  0  0  0  0  0  0  0  0  0
   39.5300   26.3480   53.6810 C   0  0  0  0  0  0  0  0  0  0  0  0
   38.3290   31.6930   55.1160 C   0  0  0  0  0  0  0  0  0  0  0  0
   38.7040   25.8570   55.3410 C   0  0  0  0  0  0  0  0  0  0  0  0
   38.5270   31.9950   57.6220 C   0  0  0  0  0  0  0  0  0  0  0  0
   39.7430   31.2670   51.7910 C   0  0  0  0  0  0  0  0  0  0  0  0
   39.3350   29.0990   52.7050 C   0  0  0  0  0  0  0  0  0  0  0  0
   37.8850   27.7540   52.6360 C   0  0  0  0  0  0  0  0  0  0  0  0
  1 25  2  0
  2 29  1  0
  2  3  1  0
  2 36  1  0
  3 20  1  0
  3 37  1  0
  3 36  1  0
  4 25  1  0
  4 12  1  0
  6 23  1  0
  7 35  1  0
  7 13  1  0
  8 35  1  0
  9 11  1  0
 10 19  1  0
 12 21  1  0
 13 32  1  0
 14  6  1  0
 15 21  1  0
 16  5  1  0
 16 15  1  0
 18 33  1  0
 19 27  1  0
 19 17  1  0
 19  9  1  0
 20 31  1  0
 22 34  1  0
 23 27  1  0
 24 29  1  0
 24  8  1  0
 25 11  1  0
 26 16  1  0
 26  4  1  0
 28 30  1  0
 30 14  1  0
 31 18  2  0
 32 22  1  0
 33 28  1  0
 34 10  1  0
 36  7  1  0
M  END
$$$$

     RDKit          3D

 27 29  0  0  0  0  0  0  0  0999 V2000
   38.9950   33.3580   60.9560 O   0  0  0  0  0  0  0  0  0  0  0  0
   40.8400   35.8080   61.7940 C   0  0  0  0  0  0  0  0  0  0  0  0
   39.5430   36.1280   62.5350 C   0  0  0  0  0  0  0  0  0  0  0  0
   39.6330   27.9630   50.0510 C   0  0  0  0  0  0  0  0  0  0  0  0
   38.6910   29.3610   57.5260 C   0  0  0  0  0  0  0  0  0  0  0  0
   37.6440   32.3850   55.6820 O   0  0  0  0  0  0  0  0  0  0  0  0
   36.3600   34.3580   60.6930 O   0  0  0  0  0  0  0  0  0  0  0  0
   40.1630   30.3490   51.4010 C   0  0  0  0  0  0  0  0  0  0  0  0
   37.2250   36.2060   59.2170 O   0  0  0  0  0  0  0  0  0  0  0  0
   39.6020   30.7330   53.9680 C   0  0  0  0  0  0  0  0  0  0  0  0
   38.6820   31.8870   56.6010 C   0  0  0  0  0  0  0  0  0  0  0  0
   39.4510   35.8720   61.0950 C   0  0  0  0  0  0  0  0  0  0  0  0
   38.7350   29.8600   54.9470 C   0  0  0  0  0  0  0  0  0  0  0  0
   40.5150   30.2370   50.0700 C   0  0  0  0  0  0  0  0  0  0  0  0
   38.3970   27.9470   57.0000 C   0  0  0  0  0  0  0  0  0  0  0  0
   39.7460   27.1530   57.1690 C   0  0  0  0  0  0  0  0  0  0  0  0
   40.7890   27.7630   57.0060 C   0  0  0  0  0  0  0  0  0  0  0  0
   39.1750   34.6130   60.3590 C   0  0  0  0  0  0  0  0  0  0  0  0
   38.9620   30.3720   56.4300 C   0  0  0  0  0  0  0  0  0  0  0  0
   39.8860   25.6630   56.9710 C   0  0  0  0  0  0  0  0  0  0  0  0
   38.4890   32.2760   58.0370 C   0  0  0  0  0  0  0  0  0  0  0  0
   37.6550   33.5470   58.3310 C   0  0  0  0  0  0  0  0  0  0  0  0
   40.2300   29.0250   49.4040 C   0  0  0  0  0  0  0  0  0  0  0  0
   37.4280   34.7030   59.6490 P   0  0  0  0  0  0  0  0  0  0  0  0
   39.2670   28.0830   51.4350 C   0  0  0  0  0  0  0  0  0  0  0  0
   39.5080   29.2950   52.0740 C   0  0  0  0  0  0  0  0  0  0  0  0
   39.0170   29.4750   53.4620 C   0  0  0  0  0  0  0  0  0  0  0  0
  2  3  1  0
  4 25  1  0
  8 26  1  0
 10 13  1  0
 11  6  1  0
 11 21  1  0
 12  2  1  0
 12  3  1  0
 13 19  1  0
 14  8  2  0
 15 16  1  0
 15  5  1  0
 17 16  2  0
 18  1  1  0
 18 12  1  0
 19 11  1  0
 19  5  1  0
 20 16  1  0
 21 22  2  3
 22 24  1  0
 23  4  2  0
 23 14  1  0
 24  9  2  0
 24 18  1  0
 24  7  1  0
 25 26  2  0
 27 26  1  0
 27 10  1  0
 27 13  1  0
M  END
$$$$

     RDKit          3D

 38 41  0  0  0  0  0  0  0  0999 V2000
   38.1770   30.5450   61.9650 F   0  0  0  0  0  0  0  0  0  0  0  0
   36.9440   32.4600   60.4140 C   0  0  0  0  0  0  0  0  0  0  0  0
   36.4690   33.9210   60.6910 C   0  0  0  0  0  0  0  0  0  0  0  0
   36.9080   37.3790   59.7400 O   0  0  0  0  0  0  0  0  0  0  0  0
   38.2510   32.0070   55.1360 C   0  0  0  0  0  0  0  0  0  0  0  0
   38.0910   32.5130   59.3870 C   0  0  0  0  0  0  0  0  0  0  0  0
   37.9720   32.0020   56.5830 N   0  0  0  0  0  0  0  0  0  0  0  0
   38.9050   24.9210   55.7640 F   0  0  0  0  0  0  0  0  0  0  0  0
   39.4070   27.2070   53.1150 C   0  0  0  0  0  0  0  0  0  0  0  0
   39.0510   37.6760   62.4270 C   0  0  0  0  0  0  0  0  0  0  0  0
   38.5720   28.4290   55.1440 C   0  0  0  0  0  0  0  0  0  0  0  0
   38.8450   33.8860   61.0330 O   0  0  0  0  0  0  0  0  0  0  0  0
   40.7050   28.4250   49.1060 O   0  0  0  0  0  0  0  0  0  0  0  0
   39.6300   29.2190   51.6090 C   0  0  0  0  0  0  0  0  0  0  0  0
   40.2040   31.1630   61.1280 F   0  0  0  0  0  0  0  0  0  0  0  0
   38.5140   27.1840   55.8560 C   0  0  0  0  0  0  0  0  0  0  0  0
   38.4840   32.5500   60.7340 C   0  0  0  0  0  0  0  0  0  0  0  0
   39.2620   30.9430   54.9750 C   0  0  0  0  0  0  0  0  0  0  0  0
   37.0470   36.7460   60.8150 C   0  0  0  0  0  0  0  0  0  0  0  0
   39.7860   27.5170   51.4960 S   0  0  0  0  0  0  0  0  0  0  0  0
   37.6170   34.5450   60.3840 C   0  0  0  0  0  0  0  0  0  0  0  0
   38.6480   33.4950   58.3840 C   0  0  0  0  0  0  0  0  0  0  0  0
   39.1130   28.4690   53.7920 C   0  0  0  0  0  0  0  0  0  0  0  0
   39.8140   30.1250   48.0590 O   0  0  0  0  0  0  0  0  0  0  0  0
   39.3750   29.5220   52.9430 N   0  0  0  0  0  0  0  0  0  0  0  0
   40.4390   37.0420   62.2100 C   0  0  0  0  0  0  0  0  0  0  0  0
   38.4660   36.2930   62.3540 O   0  0  0  0  0  0  0  0  0  0  0  0
   37.9530   35.7610   61.1200 C   0  0  0  0  0  0  0  0  0  0  0  0
   40.2100   29.6850   49.2790 C   0  0  0  0  0  0  0  0  0  0  0  0
   39.2910   32.2680   62.8530 F   0  0  0  0  0  0  0  0  0  0  0  0
   39.1970   31.3610   50.6460 N   0  0  0  0  0  0  0  0  0  0  0  0
   38.8870   26.0360   55.1900 C   0  0  0  0  0  0  0  0  0  0  0  0
   38.1390   33.4540   56.9620 C   0  0  0  0  0  0  0  0  0  0  0  0
   39.2520   26.0190   53.8280 C   0  0  0  0  0  0  0  0  0  0  0  0
   36.3600   37.0090   61.9600 O   0  0  0  0  0  0  0  0  0  0  0  0
   39.6150   30.9040   53.4890 C   0  0  0  0  0  0  0  0  0  0  0  0
   39.6560   30.1370   50.5530 C   0  0  0  0  0  0  0  0  0  0  0  0
   39.0120   31.6090   61.6130 C   0  0  0  0  0  0  0  0  0  0  0  0
  2  3  1  0
  2 17  1  0
  4 19  2  0
  5  7  1  0
  6 22  1  0
  6  2  1  0
  6 17  1  0
  7 33  1  0
  9 23  2  0
  9 34  1  0
 11 16  2  0
 13 29  1  0
 14 37  1  0
 14 25  1  0
 15 38  1  0
 17 12  1  0
 17 38  1  0
 18  5  1  0
 19 35  1  0
 20 14  1  0
 20  9  1  0
 21  3  1  0
 21 12  1  0
 21 28  1  0
 23 11  1  0
 24 29  2  0
 25 36  1  0
 25 23  1  0
 26 10  1  0
 27 10  1  0
 28 19  1  0
 28 27  1  0
 29 37  1  0
 32  8  1  0
 32 16  1  0
 33 22  1  0
 34 32  2  0
 36 18  1  0
 37 31  2  0
 38  1  1  0
 38 30  1  0
M  END
$$$$

     RDKit          3D

 22 24  0  0  0  0  0  0  0  0999 V2000
   38.1960   27.8290   53.2590 C   0  0  0  0  0  0  0  0  0  0  0  0
   38.6290   30.8480   57.6340 C   0  0  0  0  0  0  0  0  0  0  0  0
   38.0780   35.8160   60.3860 N   0  0  0  0  0  0  0  0  0  0  0  0
   38.9020   28.3970   52.0630 C   0  0  0  0  0  0  0  0  0  0  0  0
   39.2720   29.6690   52.4310 C   0  0  0  0  0  0  0  0  0  0  0  0
   38.8700   31.3290   55.0570 S   0  0  0  0  0  0  0  0  0  0  0  0
   37.8180   32.8680   59.5590 C   0  0  0  0  0  0  0  0  0  0  0  0
   39.1590   27.9860   50.6150 C   0  0  0  0  0  0  0  0  0  0  0  0
   40.0150   30.2790   50.1570 C   0  0  0  0  0  0  0  0  0  0  0  0
   34.9960   32.5770   60.7490 C   0  0  0  0  0  0  0  0  0  0  0  0
   38.3610   32.3770   57.5170 C   0  0  0  0  0  0  0  0  0  0  0  0
   40.1990   30.6020   51.7100 C   0  0  0  0  0  0  0  0  0  0  0  0
   39.0470   29.8810   53.8040 C   0  0  0  0  0  0  0  0  0  0  0  0
   35.7630   33.7960   60.2470 C   0  0  0  0  0  0  0  0  0  0  0  0
   38.3670   28.7790   55.7990 S   0  0  0  0  0  0  0  0  0  0  0  0
   38.5700   30.2180   56.1990 C   0  0  0  0  0  0  0  0  0  0  0  0
   36.7920   36.3900   59.7060 C   0  0  0  0  0  0  0  0  0  0  0  0
   37.6210   33.1630   58.1050 N   0  0  0  0  0  0  0  0  0  0  0  0
   37.0270   33.7620   60.6130 C   0  0  0  0  0  0  0  0  0  0  0  0
   38.4650   28.7930   54.3460 C   0  0  0  0  0  0  0  0  0  0  0  0
   40.2690   28.8680   49.8780 C   0  0  0  0  0  0  0  0  0  0  0  0
   37.7230   35.1340   61.0250 C   0  0  0  0  0  0  0  0  0  0  0  0
  3 22  1  0
  4  5  1  0
  4  1  2  0
  5 13  2  0
  6 16  1  0
  8  4  1  0
  9 12  1  0
 11  2  1  0
 11 18  1  0
 12  5  1  0
 13 20  1  0
 13  6  1  0
 14 19  1  0
 14 10  1  0
 15 16  1  0
 16  2  1  0
 17  3  1  0
 18  7  1  0
 19  7  1  0
 19 22  1  0
 20  1  1  0
 20 15  1  0
 21  9  1  0
 21  8  1  0
M  END
$$$$
