
     RDKit          3D

 31 33  0  0  0  0  0  0  0  0999 V2000
   39.9090   29.6490   51.2870 C   0  0  0  0  0  0  0  0  0  0  0  0
   37.9320   29.2040   55.4170 C   0  0  0  0  0  0  0  0  0  0  0  0
   37.0030   36.4340   60.1490 C   0  0  0  0  0  0  0  0  0  0  0  0
   37.7440   34.0250   59.0920 C   0  0  0  0  0  0  0  0  0  0  0  0
   39.8920   28.3940   50.5820 C   0  0  0  0  0  0  0  0  0  0  0  0
   39.0970   27.3000   52.6360 C   0  0  0  0  0  0  0  0  0  0  0  0
   38.9060   36.0810   61.7230 C   0  0  0  0  0  0  0  0  0  0  0  0
   37.0770   37.8580   60.2720 C   0  0  0  0  0  0  0  0  0  0  0  0
   37.8830   35.5580   60.8120 C   0  0  0  0  0  0  0  0  0  0  0  0
   38.5540   26.8420   56.3300 C   0  0  0  0  0  0  0  0  0  0  0  0
   37.9520   31.7260   56.1660 N   0  0  0  0  0  0  0  0  0  0  0  0
   38.5640   32.8700   56.8950 C   0  0  0  0  0  0  0  0  0  0  0  0
   38.2160   32.7820   58.3850 C   0  0  0  0  0  0  0  0  0  0  0  0
   38.0790   38.3450   61.0800 C   0  0  0  0  0  0  0  0  0  0  0  0
   39.7960   38.0480   62.6880 F   0  0  0  0  0  0  0  0  0  0  0  0
   38.8540   37.4930   61.8100 C   0  0  0  0  0  0  0  0  0  0  0  0
   37.7010   34.2120   60.6100 C   0  0  0  0  0  0  0  0  0  0  0  0
   39.4660   27.2460   51.3080 C   0  0  0  0  0  0  0  0  0  0  0  0
   35.6240   33.2550   61.6050 N   0  0  0  0  0  0  0  0  0  0  0  0
   38.0420   30.6720   56.0720 C   0  0  0  0  0  0  0  0  0  0  0  0
   39.6160   29.7390   52.5370 C   0  0  0  0  0  0  0  0  0  0  0  0
   39.0460   29.6220   54.7000 C   0  0  0  0  0  0  0  0  0  0  0  0
   38.0480   28.2420   56.4390 N   0  0  0  0  0  0  0  0  0  0  0  0
   38.2200   39.6590   61.0960 O   0  0  0  0  0  0  0  0  0  0  0  0
   40.0280   26.8810   56.1630 C   0  0  0  0  0  0  0  0  0  0  0  0
   37.6620   25.7160   56.1490 C   0  0  0  0  0  0  0  0  0  0  0  0
   40.0760   25.8250   54.9630 C   0  0  0  0  0  0  0  0  0  0  0  0
   39.2170   28.6410   53.3690 N   0  0  0  0  0  0  0  0  0  0  0  0
   39.4760   30.9210   53.4960 S   0  0  0  0  0  0  0  0  0  0  0  0
   36.5850   33.6600   61.1620 C   0  0  0  0  0  0  0  0  0  0  0  0
   40.3460   28.3640   48.9040 Cl  0  0  0  0  0  0  0  0  0  0  0  0
  1 21  2  0
  2 20  1  0
  2 23  1  0
  3  8  2  0
  3  9  1  0
  5  1  1  0
  5 18  2  0
  6 28  1  0
  7 16  1  0
  8 14  1  0
  9  7  2  0
 10 26  1  0
 10 23  1  0
 11 12  1  0
 12 13  1  0
 13  4  2  3
 14 24  1  0
 14 16  2  0
 16 15  1  0
 17  4  1  0
 17  9  1  0
 17 30  1  0
 18  6  1  0
 20 11  1  0
 21 28  1  0
 21 29  1  0
 22  2  1  0
 25 10  1  0
 27 25  1  0
 28 22  1  0
 29 22  1  0
 30 19  3  0
 31  5  1  0
M  END
$$$$

     RDKit          3D

 28 31  0  0  0  0  0  0  0  0999 V2000
   37.1820   35.4730   61.1720 C   0  0  0  0  0  0  0  0  0  0  0  0
   38.6130   28.6940   53.4300 C   0  0  0  0  0  0  0  0  0  0  0  0
   37.2710   37.5660   60.0270 O   0  0  0  0  0  0  0  0  0  0  0  0
   37.9890   30.2590   55.2420 C   0  0  0  0  0  0  0  0  0  0  0  0
   36.8260   34.0220   60.6670 C   0  0  0  0  0  0  0  0  0  0  0  0
   38.8740   32.1380   56.3830 C   0  0  0  0  0  0  0  0  0  0  0  0
   39.9110   28.7840   49.7520 C   0  0  0  0  0  0  0  0  0  0  0  0
   38.6460   26.4330   53.3150 C   0  0  0  0  0  0  0  0  0  0  0  0
   39.3830   26.9840   52.1140 N   0  0  0  0  0  0  0  0  0  0  0  0
   37.9720   29.7740   59.0830 C   0  0  0  0  0  0  0  0  0  0  0  0
   38.1640   33.4010   60.2410 C   0  0  0  0  0  0  0  0  0  0  0  0
   39.9770   29.1170   51.2090 C   0  0  0  0  0  0  0  0  0  0  0  0
   39.3550   28.3240   52.2200 C   0  0  0  0  0  0  0  0  0  0  0  0
   38.3450   31.8280   57.8970 C   0  0  0  0  0  0  0  0  0  0  0  0
   38.0340   30.9610   60.1410 C   0  0  0  0  0  0  0  0  0  0  0  0
   37.2440   36.0240   60.0450 C   0  0  0  0  0  0  0  0  0  0  0  0
   37.8170   31.7440   55.5360 N   0  0  0  0  0  0  0  0  0  0  0  0
   38.6760   29.9540   53.9910 C   0  0  0  0  0  0  0  0  0  0  0  0
   35.9710   33.4700   60.2640 O   0  0  0  0  0  0  0  0  0  0  0  0
   40.1470   30.5300   51.4810 C   0  0  0  0  0  0  0  0  0  0  0  0
   37.5820   37.6270   61.2680 C   0  0  0  0  0  0  0  0  0  0  0  0
   38.6730   29.6240   56.5630 C   0  0  0  0  0  0  0  0  0  0  0  0
   37.8420   27.5340   53.9080 C   0  0  0  0  0  0  0  0  0  0  0  0
   38.4170   30.3810   57.8080 N   0  0  0  0  0  0  0  0  0  0  0  0
   37.7650   33.2410   57.9380 O   0  0  0  0  0  0  0  0  0  0  0  0
   37.4280   36.7310   62.0150 C   0  0  0  0  0  0  0  0  0  0  0  0
   38.5850   32.0870   59.5860 C   0  0  0  0  0  0  0  0  0  0  0  0
   40.1130   29.9750   49.0450 O   0  0  0  0  0  0  0  0  0  0  0  0
  1 26  1  0
  2 23  1  0
  2 18  2  3
  3 16  1  0
  3 21  1  0
  4 18  1  0
  4 17  1  0
  4 22  1  0
  5  1  1  0
  6 14  1  0
  7 12  1  0
  8 23  1  0
  9 13  1  0
  9  8  1  0
 10 15  1  0
 11  5  1  0
 12 20  1  0
 13 12  1  0
 13  2  1  0
 14 25  1  0
 14 27  1  0
 16  1  2  0
 17  6  1  0
 19  5  2  0
 21 26  1  0
 24 22  1  0
 24 14  1  0
 24 10  1  0
 27 15  1  0
 27 11  1  0
 28  7  1  0
M  END
$$$$

     RDKit          3D

 25 25  0  0  0  0  0  0  0  0999 V2000
   38.0360   27.4950   53.6980 C   0  0  0  0  0  0  0  0  0  0  0  0
   38.1270   33.1320   58.2830 C   0  0  0  0  0  0  0  0  0  0  0  0
   35.8600   34.1880   59.6580 O   0  0  0  0  0  0  0  0  0  0  0  0
   36.7450   36.9410   59.1060 O   0  0  0  0  0  0  0  0  0  0  0  0
   38.2980   34.1080   59.5790 C   0  0  0  0  0  0  0  0  0  0  0  0
   40.5860   29.5620   49.1120 F   0  0  0  0  0  0  0  0  0  0  0  0
   40.1660   29.6900   50.4040 C   0  0  0  0  0  0  0  0  0  0  0  0
   39.7070   27.0050   57.2390 C   0  0  0  0  0  0  0  0  0  0  0  0
   40.5130   26.4600   56.4790 O   0  0  0  0  0  0  0  0  0  0  0  0
   39.8730   29.1720   55.9070 C   0  0  0  0  0  0  0  0  0  0  0  0
   39.3590   29.3550   52.6580 C   0  0  0  0  0  0  0  0  0  0  0  0
   39.6860   28.5680   51.2080 S   0  0  0  0  0  0  0  0  0  0  0  0
   38.4130   30.6730   57.5940 C   0  0  0  0  0  0  0  0  0  0  0  0
   38.5440   36.5540   60.6350 O   0  0  0  0  0  0  0  0  0  0  0  0
   37.4870   27.1590   52.4670 O   0  0  0  0  0  0  0  0  0  0  0  0
   38.9440   29.4620   54.8850 N   0  0  0  0  0  0  0  0  0  0  0  0
   37.0360   34.7590   60.2100 C   0  0  0  0  0  0  0  0  0  0  0  0
   39.1750   26.4400   58.4340 C   0  0  0  0  0  0  0  0  0  0  0  0
   39.4090   28.5140   57.0550 C   0  0  0  0  0  0  0  0  0  0  0  0
   38.6680   29.2250   57.9360 O   0  0  0  0  0  0  0  0  0  0  0  0
   37.1300   36.2710   60.3580 C   0  0  0  0  0  0  0  0  0  0  0  0
   40.1320   30.8990   51.0640 C   0  0  0  0  0  0  0  0  0  0  0  0
   38.1950   31.5900   58.8470 C   0  0  0  0  0  0  0  0  0  0  0  0
   39.7080   30.6610   52.4130 C   0  0  0  0  0  0  0  0  0  0  0  0
   38.9300   28.6490   53.7240 C   0  0  0  0  0  0  0  0  0  0  0  0
  2 23  1  0
  2  5  1  0
  4 21  1  0
  5 17  1  0
  6  7  1  0
  7 22  2  0
  7 12  1  0
  8 18  1  0
  9  8  2  0
 11 25  1  0
 12 11  1  0
 13 20  1  0
 13 23  1  0
 15  1  1  0
 16 10  1  0
 17  3  1  0
 17 21  1  0
 19 10  1  0
 19  8  1  0
 19 20  1  0
 21 14  1  0
 22 24  1  0
 24 11  2  0
 25  1  1  0
 25 16  1  0
M  END
$$$$

     RDKit          3D

  8  7  0  0  0  0  0  0  0  0999 V2000
   38.0340   32.7910   56.0990 O   0  0  0  0  0  0  0  0  0  0  0  0
   38.4270   32.6340   57.5070 C   0  0  0  0  0  0  0  0  0  0  0  0
   38.6010   33.8770   59.5530 O   0  0  0  0  0  0  0  0  0  0  0  0
   37.8080   33.6970   58.3450 C   0  0  0  0  0  0  0  0  0  0  0  0
   38.3560   29.9480   53.2970 S   0  0  0  0  0  0  0  0  0  0  0  0
   36.8110   28.9470   52.6130 S   0  0  0  0  0  0  0  0  0  0  0  0
   37.5000   31.2690   54.2070 C   0  0  0  0  0  0  0  0  0  0  0  0
   38.5280   31.7070   55.3060 C   0  0  0  0  0  0  0  0  0  0  0  0
  1  2  1  0
  2  4  1  0
  4  3  1  0
  5  7  1  0
  6  5  1  0
  7  8  1  0
  8  1  1  0
M  END
$$$$

     RDKit          3D

 16 16  0  0  0  0  0  0  0  0999 V2000
   39.5620   31.2380   55.1380 C   0  0  0  0  0  0  0  0  0  0  0  0
   37.5290   29.9220   58.9180 C   0  0  0  0  0  0  0  0  0  0  0  0
   38.9610   29.1980   57.1690 C   0  0  0  0  0  0  0  0  0  0  0  0
   37.1940   31.9850   59.4060 C   0  0  0  0  0  0  0  0  0  0  0  0
   36.9590   34.4650   59.7820 C   0  0  0  0  0  0  0  0  0  0  0  0
   35.6520   34.4810   59.1420 O   0  0  0  0  0  0  0  0  0  0  0  0
   37.7740   33.3140   59.6180 C   0  0  0  0  0  0  0  0  0  0  0  0
   38.3290   31.4100   57.0960 C   0  0  0  0  0  0  0  0  0  0  0  0
   37.5360   35.7650   60.5120 C   0  0  0  0  0  0  0  0  0  0  0  0
   37.8150   31.1390   58.3120 N   0  0  0  0  0  0  0  0  0  0  0  0
   38.8750   35.5230   60.8530 O   0  0  0  0  0  0  0  0  0  0  0  0
   36.8530   35.8450   61.8420 C   0  0  0  0  0  0  0  0  0  0  0  0
   36.0310   31.6720   59.7710 O   0  0  0  0  0  0  0  0  0  0  0  0
   38.8120   30.5410   56.2810 C   0  0  0  0  0  0  0  0  0  0  0  0
   37.4450   37.0610   59.7420 C   0  0  0  0  0  0  0  0  0  0  0  0
   38.3210   28.7060   58.2450 C   0  0  0  0  0  0  0  0  0  0  0  0
  1 14  1  0
  3 16  1  0
  4  7  1  0
  4 13  2  0
  5  6  1  0
  5  9  1  0
  7  5  1  0
  8 10  1  0
  9 11  1  0
  9 12  1  0
 10  2  1  0
 10  4  1  0
 14  8  2  0
 14  3  1  0
 15  9  1  0
 16  2  1  0
M  END
$$$$

     RDKit          3D

 24 26  0  0  0  0  0  0  0  0999 V2000
   37.9230   30.4110   55.0840 C   0  0  0  0  0  0  0  0  0  0  0  0
   38.6010   33.8650   55.8670 O   0  0  0  0  0  0  0  0  0  0  0  0
   35.9240   33.6260   61.2840 C   0  0  0  0  0  0  0  0  0  0  0  0
   38.8010   37.1020   61.5490 C   0  0  0  0  0  0  0  0  0  0  0  0
   37.3910   33.7660   60.6910 C   0  0  0  0  0  0  0  0  0  0  0  0
   38.0670   39.4430   61.0750 C   0  0  0  0  0  0  0  0  0  0  0  0
   36.8930   36.0620   59.9730 C   0  0  0  0  0  0  0  0  0  0  0  0
   38.7840   29.1890   55.6960 C   0  0  0  0  0  0  0  0  0  0  0  0
   38.3020   32.2790   58.3050 C   0  0  0  0  0  0  0  0  0  0  0  0
   39.2050   32.4850   62.0090 C   0  0  0  0  0  0  0  0  0  0  0  0
   37.0670   37.4190   60.1040 N   0  0  0  0  0  0  0  0  0  0  0  0
   38.4170   31.6400   56.8980 N   0  0  0  0  0  0  0  0  0  0  0  0
   35.3640   32.0050   60.7310 S   0  0  0  0  0  0  0  0  0  0  0  0
   38.2570   31.6590   55.2980 C   0  0  0  0  0  0  0  0  0  0  0  0
   37.7260   35.2590   60.7010 C   0  0  0  0  0  0  0  0  0  0  0  0
   38.6870   35.7410   61.4840 C   0  0  0  0  0  0  0  0  0  0  0  0
   38.1980   31.5670   59.8020 C   0  0  0  0  0  0  0  0  0  0  0  0
   40.1990   30.5470   61.0370 C   0  0  0  0  0  0  0  0  0  0  0  0
   38.6360   32.5890   55.6590 C   0  0  0  0  0  0  0  0  0  0  0  0
   40.1730   31.4750   62.0420 C   0  0  0  0  0  0  0  0  0  0  0  0
   38.2550   32.5950   60.9830 C   0  0  0  0  0  0  0  0  0  0  0  0
   36.7060   30.8190   59.7710 C   0  0  0  0  0  0  0  0  0  0  0  0
   37.9470   37.9220   60.8720 C   0  0  0  0  0  0  0  0  0  0  0  0
   39.3320   30.6280   59.9400 C   0  0  0  0  0  0  0  0  0  0  0  0
  1 14  1  0
  1  8  1  0
  5 15  1  0
  5 21  1  0
  5  3  1  0
  7 11  2  0
  7 15  1  0
 10 20  1  0
 11 23  1  0
 12  9  2  3
 13  3  1  0
 14 19  1  0
 15 16  2  0
 16  4  1  0
 17  9  1  0
 17 24  1  0
 17 21  1  0
 18 20  2  0
 19  2  1  0
 19 12  1  0
 21 10  2  0
 22 17  1  0
 22 13  1  0
 23  6  1  0
 23  4  2  0
 24 18  1  0
M  END
$$$$

     RDKit          3D

 36 39  0  0  0  0  0  0  0  0999 V2000
   37.6780   32.5000   60.8560 C   0  0  0  0  0  0  0  0  0  0  0  0
   40.7270   28.7790   48.0840 C   0  0  0  0  0  0  0  0  0  0  0  0
   37.5060   32.5260   55.0520 O   0  0  0  0  0  0  0  0  0  0  0  0
   38.3190   29.0360   55.7640 C   0  0  0  0  0  0  0  0  0  0  0  0
   37.3730   32.0690   59.5140 N   0  0  0  0  0  0  0  0  0  0  0  0
   38.9870   28.8790   52.5830 N   0  0  0  0  0  0  0  0  0  0  0  0
   38.9230   27.5870   57.5700 O   0  0  0  0  0  0  0  0  0  0  0  0
   38.5290   29.9510   54.5780 C   0  0  0  0  0  0  0  0  0  0  0  0
   37.2240   29.5690   56.6200 O   0  0  0  0  0  0  0  0  0  0  0  0
   39.5700   27.0950   51.6290 O   0  0  0  0  0  0  0  0  0  0  0  0
   36.7020   36.5590   60.7290 S   0  0  0  0  0  0  0  0  0  0  0  0
   38.5920   31.6040   55.6980 S   0  0  0  0  0  0  0  0  0  0  0  0
   39.6210   26.7020   54.5930 O   0  0  0  0  0  0  0  0  0  0  0  0
   39.3820   28.4330   56.6590 C   0  0  0  0  0  0  0  0  0  0  0  0
   39.1010   32.1170   61.3030 C   0  0  0  0  0  0  0  0  0  0  0  0
   40.4800   30.0500   47.7080 C   0  0  0  0  0  0  0  0  0  0  0  0
   38.9390   35.3800   61.3350 C   0  0  0  0  0  0  0  0  0  0  0  0
   38.5270   36.8960   61.1450 S   0  0  0  0  0  0  0  0  0  0  0  0
   39.5580   25.3720   54.9630 C   0  0  0  0  0  0  0  0  0  0  0  0
   36.0280   36.8300   61.9830 O   0  0  0  0  0  0  0  0  0  0  0  0
   38.5360   31.5420   58.7190 C   0  0  0  0  0  0  0  0  0  0  0  0
   40.5620   28.1250   49.2510 C   0  0  0  0  0  0  0  0  0  0  0  0
   40.0100   32.8040   62.2310 C   0  0  0  0  0  0  0  0  0  0  0  0
   39.4040   30.3600   53.1840 S   0  0  0  0  0  0  0  0  0  0  0  0
   36.7450   34.8400   60.2820 C   0  0  0  0  0  0  0  0  0  0  0  0
   40.0100   28.9420   50.2950 C   0  0  0  0  0  0  0  0  0  0  0  0
   37.9950   34.1430   60.9190 C   0  0  0  0  0  0  0  0  0  0  0  0
   41.0180   34.0390   62.0940 C   0  0  0  0  0  0  0  0  0  0  0  0
   36.5140   36.9670   59.2990 O   0  0  0  0  0  0  0  0  0  0  0  0
   37.9970   28.0410   53.2940 C   0  0  0  0  0  0  0  0  0  0  0  0
   39.4930   28.2590   51.5250 C   0  0  0  0  0  0  0  0  0  0  0  0
   40.0640   30.8640   48.8010 C   0  0  0  0  0  0  0  0  0  0  0  0
   39.8760   30.3160   50.0390 C   0  0  0  0  0  0  0  0  0  0  0  0
   38.4570   27.6450   54.6280 C   0  0  0  0  0  0  0  0  0  0  0  0
   40.3290   35.2880   62.0620 N   0  0  0  0  0  0  0  0  0  0  0  0
   38.3220   32.1600   57.3710 C   0  0  0  0  0  0  0  0  0  0  0  0
  1  5  1  0
  1 27  1  0
  1 15  1  0
  2 22  1  0
  4  9  1  0
  4 14  1  0
  6 24  1  0
  6 30  1  0
  8 12  1  0
  8  4  1  0
 11 18  1  0
 11 20  2  0
 12  3  2  0
 12 36  1  0
 13 19  1  0
 14  7  1  0
 15 23  1  0
 16  2  2  0
 16 32  1  0
 17 35  1  0
 18 17  1  0
 21  5  1  0
 22 26  2  0
 24  8  1  0
 25 11  1  0
 25 27  1  0
 26 31  1  0
 27 17  2  0
 28 23  1  0
 29 11  2  0
 30 34  1  0
 31 10  2  0
 31  6  1  0
 32 33  2  0
 33 26  1  0
 34 13  1  0
 34  4  1  0
 35 28  1  0
 36 21  1  0
M  END
$$$$

     RDKit          3D

 50 53  0  0  0  0  0  0  0  0999 V2000
   37.6350   36.6200   58.9530 O   0  0  0  0  0  0  0  0  0  0  0  0
   39.2950   31.1590   47.8760 F   0  0  0  0  0  0  0  0  0  0  0  0
   39.8480   25.7090   55.0880 C   0  0  0  0  0  0  0  0  0  0  0  0
   39.3950   30.1610   48.7000 C   0  0  0  0  0  0  0  0  0  0  0  0
   38.0000   27.1940   56.2260 C   0  0  0  0  0  0  0  0  0  0  0  0
   40.6590   29.8150   62.3460 C   0  0  0  0  0  0  0  0  0  0  0  0
   40.0790   36.9850   62.5570 C   0  0  0  0  0  0  0  0  0  0  0  0
   39.3340   29.4680   51.0410 C   0  0  0  0  0  0  0  0  0  0  0  0
   38.9380   29.6330   52.4130 C   0  0  0  0  0  0  0  0  0  0  0  0
   37.9020   28.6760   56.0960 N   0  0  0  0  0  0  0  0  0  0  0  0
   40.8030   36.6220   63.2380 C   0  0  0  0  0  0  0  0  0  0  0  0
   38.3230   38.5850   61.4100 O   0  0  0  0  0  0  0  0  0  0  0  0
   41.0940   35.1750   63.4060 C   0  0  0  0  0  0  0  0  0  0  0  0
   40.4270   25.6440   53.7150 C   0  0  0  0  0  0  0  0  0  0  0  0
   39.9590   31.0360   61.6460 C   0  0  0  0  0  0  0  0  0  0  0  0
   39.3690   30.4830   50.1270 C   0  0  0  0  0  0  0  0  0  0  0  0
   38.0070   31.0700   57.1010 C   0  0  0  0  0  0  0  0  0  0  0  0
   36.7840   31.2550   60.4840 O   0  0  0  0  0  0  0  0  0  0  0  0
   38.4310   28.6910   47.1680 F   0  0  0  0  0  0  0  0  0  0  0  0
   38.3740   32.1010   57.8340 C   0  0  0  0  0  0  0  0  0  0  0  0
   37.8590   37.2430   63.8210 O   0  0  0  0  0  0  0  0  0  0  0  0
   38.0380   29.6240   52.7940 O   0  0  0  0  0  0  0  0  0  0  0  0
   38.1490   29.4560   57.2820 C   0  0  0  0  0  0  0  0  0  0  0  0
   39.1200   28.8470   48.3120 C   0  0  0  0  0  0  0  0  0  0  0  0
   37.2330   36.5090   61.3090 O   0  0  0  0  0  0  0  0  0  0  0  0
   37.2290   36.0680   59.9550 C   0  0  0  0  0  0  0  0  0  0  0  0
   38.3550   33.9900   61.4110 C   0  0  0  0  0  0  0  0  0  0  0  0
   41.5390   27.8120   51.9220 O   0  0  0  0  0  0  0  0  0  0  0  0
   34.6030   33.2230   60.2870 C   0  0  0  0  0  0  0  0  0  0  0  0
   40.3120   28.5330   61.6200 C   0  0  0  0  0  0  0  0  0  0  0  0
   38.5770   28.8900   58.2220 O   0  0  0  0  0  0  0  0  0  0  0  0
   39.6130   28.1220   50.6270 C   0  0  0  0  0  0  0  0  0  0  0  0
   35.4100   34.4730   60.2510 C   0  0  0  0  0  0  0  0  0  0  0  0
   38.4070   37.3820   62.2380 S   0  0  0  0  0  0  0  0  0  0  0  0
   38.1710   26.6480   53.5020 S   0  0  0  0  0  0  0  0  0  0  0  0
   40.2130   27.1530   51.6400 C   0  0  0  0  0  0  0  0  0  0  0  0
   38.9650   30.6690   60.5430 N   0  0  0  0  0  0  0  0  0  0  0  0
   38.0080   31.0630   55.2510 P   0  0  0  0  0  0  0  0  0  0  0  0
   38.1520   32.6750   59.2200 C   0  0  0  0  0  0  0  0  0  0  0  0
   39.8100   33.7120   61.7710 C   0  0  0  0  0  0  0  0  0  0  0  0
   39.7140   26.4660   52.8440 C   0  0  0  0  0  0  0  0  0  0  0  0
   37.7300   32.7060   54.8440 O   0  0  0  0  0  0  0  0  0  0  0  0
   39.4320   30.9770   54.8560 O   0  0  0  0  0  0  0  0  0  0  0  0
   37.8260   33.7010   59.9870 C   0  0  0  0  0  0  0  0  0  0  0  0
   36.6890   34.6460   59.6510 C   0  0  0  0  0  0  0  0  0  0  0  0
   37.8230   31.5370   60.1880 C   0  0  0  0  0  0  0  0  0  0  0  0
   37.0900   29.3960   55.0420 C   0  0  0  0  0  0  0  0  0  0  0  0
   38.7380   26.5340   55.1020 C   0  0  0  0  0  0  0  0  0  0  0  0
   40.4570   34.2430   62.7090 C   0  0  0  0  0  0  0  0  0  0  0  0
   39.4120   27.7360   49.2640 C   0  0  0  0  0  0  0  0  0  0  0  0
  1 26  2  0
  2  4  1  0
  3 48  1  0
  4 16  1  0
  7 11  1  0
  8  9  1  0
  9 22  2  0
 10  5  1  0
 10 23  1  0
 11 13  1  0
 12 34  1  0
 14  3  1  0
 15  6  1  0
 16  8  2  0
 17 23  1  0
 17 20  1  0
 19 24  1  0
 23 31  2  0
 24  4  2  0
 24 50  1  0
 25 34  1  0
 26 25  1  0
 27 40  1  0
 30  6  1  0
 32  8  1  0
 32 36  1  0
 33 29  1  0
 34  7  1  0
 34 21  1  0
 35 48  1  0
 36 28  1  0
 37 15  1  0
 38 42  2  0
 38 17  1  0
 39 20  1  0
 39 46  1  0
 40 49  2  0
 41 36  1  0
 41 35  1  0
 41 14  1  0
 43 38  1  0
 44 39  1  0
 44 27  1  0
 45 26  1  0
 45 44  1  0
 45 33  1  0
 46 18  2  0
 46 37  1  0
 47 38  1  0
 47 10  1  0
 48  5  1  0
 49 13  2  0
 50 32  2  0
M  END
$$$$

     RDKit          3D

 19 19  0  0  0  0  0  0  0  0999 V2000
   40.0650   29.3060   49.2690 C   0  0  0  0  0  0  0  0  0  0  0  0
   39.0170   29.7400   52.2630 C   0  0  0  0  0  0  0  0  0  0  0  0
   40.2680   30.4320   50.2370 C   0  0  0  0  0  0  0  0  0  0  0  0
   38.9100   33.0370   60.4760 C   0  0  0  0  0  0  0  0  0  0  0  0
   38.7000   31.0990   59.1940 C   0  0  0  0  0  0  0  0  0  0  0  0
   39.2800   30.5040   60.4630 C   0  0  0  0  0  0  0  0  0  0  0  0
   38.4910   30.3600   58.2490 N   0  0  0  0  0  0  0  0  0  0  0  0
   38.5360   32.5480   59.0640 C   0  0  0  0  0  0  0  0  0  0  0  0
   38.8370   31.9370   61.6610 S   0  0  0  0  0  0  0  0  0  0  0  0
   39.7790   28.0280   50.0000 C   0  0  0  0  0  0  0  0  0  0  0  0
   37.4520   33.2870   59.0450 C   0  0  0  0  0  0  0  0  0  0  0  0
   37.6950   31.0690   54.8220 C   0  0  0  0  0  0  0  0  0  0  0  0
   37.2730   34.6060   59.7000 C   0  0  0  0  0  0  0  0  0  0  0  0
   35.9450   34.6910   59.1050 N   0  0  0  0  0  0  0  0  0  0  0  0
   38.0470   29.6140   54.7380 C   0  0  0  0  0  0  0  0  0  0  0  0
   38.5440   29.0540   56.0180 C   0  0  0  0  0  0  0  0  0  0  0  0
   40.1400   30.1600   51.7130 C   0  0  0  0  0  0  0  0  0  0  0  0
   38.9180   29.0390   53.6000 C   0  0  0  0  0  0  0  0  0  0  0  0
   37.8500   29.7950   57.2020 C   0  0  0  0  0  0  0  0  0  0  0  0
  1 10  1  0
  1  3  1  0
  2 18  1  0
  3 17  1  0
  4  9  1  0
  5  7  1  0
  5  6  1  0
  6  9  1  0
  8 11  1  0
  8  5  1  0
  8  4  1  0
 11 13  1  0
 14 13  1  0
 15 12  1  0
 15 16  1  0
 16 19  1  0
 17  2  1  0
 18 15  1  0
 19  7  1  0
M  END
$$$$

     RDKit          3D

  5  4  0  0  0  0  0  0  0  0999 V2000
   38.8520   32.5080   56.9860 C   0  0  0  0  0  0  0  0  0  0  0  0
   38.4650   32.7700   55.6140 C   0  0  0  0  0  0  0  0  0  0  0  0
   36.9480   31.1470   54.6300 O   0  0  0  0  0  0  0  0  0  0  0  0
   38.3740   32.8210   58.1060 C   0  0  0  0  0  0  0  0  0  0  0  0
   38.3450   31.5000   54.7590 C   0  0  0  0  0  0  0  0  0  0  0  0
  1  4  2  0
  2  1  1  0
  3  5  1  0
  5  2  1  0
M  END
$$$$

     RDKit          3D

 37 40  0  0  0  0  0  0  0  0999 V2000
   39.3520   34.5060   60.4230 C   0  0  0  0  0  0  0  0  0  0  0  0
   36.8450   29.2200   57.7690 C   0  0  0  0  0  0  0  0  0  0  0  0
   36.8840   29.0420   54.6790 C   0  0  0  0  0  0  0  0  0  0  0  0
   39.5720   27.7310   51.1860 C   0  0  0  0  0  0  0  0  0  0  0  0
   37.9940   31.5140   59.5590 C   0  0  0  0  0  0  0  0  0  0  0  0
   39.2090   27.3510   53.3580 C   0  0  0  0  0  0  0  0  0  0  0  0
   39.9660   30.9330   50.9810 C   0  0  0  0  0  0  0  0  0  0  0  0
   36.5080   29.6570   59.2200 C   0  0  0  0  0  0  0  0  0  0  0  0
   36.4220   36.9900   59.1350 O   0  0  0  0  0  0  0  0  0  0  0  0
   35.8990   34.5970   59.6500 O   0  0  0  0  0  0  0  0  0  0  0  0
   40.0050   36.4240   62.0560 C   0  0  0  0  0  0  0  0  0  0  0  0
   38.5950   37.0170   62.3530 C   0  0  0  0  0  0  0  0  0  0  0  0
   40.0220   31.0650   54.9890 O   0  0  0  0  0  0  0  0  0  0  0  0
   36.9600   34.9850   60.4530 C   0  0  0  0  0  0  0  0  0  0  0  0
   37.6620   37.4390   61.0870 C   0  0  0  0  0  0  0  0  0  0  0  0
   38.0140   32.5780   60.2710 N   0  0  0  0  0  0  0  0  0  0  0  0
   38.6670   31.0020   54.8370 C   0  0  0  0  0  0  0  0  0  0  0  0
   38.9440   28.9500   56.0340 C   0  0  0  0  0  0  0  0  0  0  0  0
   38.3560   29.4750   54.7990 C   0  0  0  0  0  0  0  0  0  0  0  0
   40.0840   30.1510   49.6820 C   0  0  0  0  0  0  0  0  0  0  0  0
   39.7280   31.2640   48.8300 C   0  0  0  0  0  0  0  0  0  0  0  0
   38.8940   30.5980   51.6520 C   0  0  0  0  0  0  0  0  0  0  0  0
   39.2360   26.5410   54.6240 C   0  0  0  0  0  0  0  0  0  0  0  0
   39.1600   28.8160   53.4480 C   0  0  0  0  0  0  0  0  0  0  0  0
   40.2400   28.7620   49.0540 C   0  0  0  0  0  0  0  0  0  0  0  0
   39.5180   27.4150   55.8750 C   0  0  0  0  0  0  0  0  0  0  0  0
   39.4480   27.6620   49.7030 C   0  0  0  0  0  0  0  0  0  0  0  0
   38.6350   32.7710   56.2780 C   0  0  0  0  0  0  0  0  0  0  0  0
   39.3290   26.7370   52.0390 N   0  0  0  0  0  0  0  0  0  0  0  0
   38.2920   28.9280   57.4970 C   0  0  0  0  0  0  0  0  0  0  0  0
   39.7290   34.8870   61.8660 C   0  0  0  0  0  0  0  0  0  0  0  0
   37.4480   36.4290   59.9530 C   0  0  0  0  0  0  0  0  0  0  0  0
   37.8110   31.9380   55.4070 O   0  0  0  0  0  0  0  0  0  0  0  0
   37.9700   33.8910   60.1880 C   0  0  0  0  0  0  0  0  0  0  0  0
   38.9530   30.8320   59.4540 O   0  0  0  0  0  0  0  0  0  0  0  0
   38.8620   29.0180   51.7500 C   0  0  0  0  0  0  0  0  0  0  0  0
   36.7330   31.0760   59.3750 N   0  0  0  0  0  0  0  0  0  0  0  0
  1 31  1  0
  2  8  1  0
  4 27  1  0
  4 36  1  0
  4 29  1  0
  5 16  1  0
  6 24  1  0
  6 23  1  0
  7 22  1  0
  8 37  1  0
  9 32  1  0
 11 12  1  0
 14 10  1  0
 15 12  1  0
 17 13  2  0
 17 33  1  0
 18 30  1  0
 19  3  1  0
 19 17  1  0
 19 18  1  0
 20 21  1  0
 20  7  1  0
 22 36  1  0
 23 26  1  0
 24 19  1  0
 25 20  1  0
 25 27  1  0
 26 18  1  0
 29  6  1  0
 30  2  1  0
 31 11  1  0
 32 14  1  0
 32 15  1  0
 33 28  1  0
 34 16  1  0
 34  1  1  0
 34 14  1  0
 35  5  2  0
 36 24  1  0
 37  5  1  0
M  END
$$$$

     RDKit          3D

 35 39  0  0  0  0  0  0  0  0999 V2000
   39.3650   27.2690   51.4210 C   0  0  0  0  0  0  0  0  0  0  0  0
   38.0430   35.9020   61.7060 N   0  0  0  0  0  0  0  0  0  0  0  0
   39.2820   36.4690   63.6450 C   0  0  0  0  0  0  0  0  0  0  0  0
   36.7800   35.8670   61.0180 C   0  0  0  0  0  0  0  0  0  0  0  0
   38.4270   31.9830   56.6540 C   0  0  0  0  0  0  0  0  0  0  0  0
   37.3770   31.6190   59.3720 C   0  0  0  0  0  0  0  0  0  0  0  0
   39.8620   27.0000   52.7710 C   0  0  0  0  0  0  0  0  0  0  0  0
   39.3160   28.1420   53.8680 S   0  0  0  0  0  0  0  0  0  0  0  0
   38.3120   38.8450   61.0600 C   0  0  0  0  0  0  0  0  0  0  0  0
   40.2540   31.2320   51.1100 C   0  0  0  0  0  0  0  0  0  0  0  0
   39.5880   28.1090   48.8820 O   0  0  0  0  0  0  0  0  0  0  0  0
   39.9400   28.8860   57.5680 O   0  0  0  0  0  0  0  0  0  0  0  0
   39.2260   34.2760   60.3650 C   0  0  0  0  0  0  0  0  0  0  0  0
   39.1660   29.8060   53.7240 C   0  0  0  0  0  0  0  0  0  0  0  0
   38.2180   36.9240   62.6010 C   0  0  0  0  0  0  0  0  0  0  0  0
   36.8650   35.0250   59.7140 C   0  0  0  0  0  0  0  0  0  0  0  0
   39.5000   31.5730   49.8510 C   0  0  0  0  0  0  0  0  0  0  0  0
   39.6790   29.0700   49.5650 C   0  0  0  0  0  0  0  0  0  0  0  0
   37.8010   30.8220   55.7070 C   0  0  0  0  0  0  0  0  0  0  0  0
   39.1150   34.9780   61.6600 C   0  0  0  0  0  0  0  0  0  0  0  0
   37.8650   28.0380   58.3030 O   0  0  0  0  0  0  0  0  0  0  0  0
   38.6410   38.1930   62.1360 C   0  0  0  0  0  0  0  0  0  0  0  0
   39.2150   31.2130   55.8490 C   0  0  0  0  0  0  0  0  0  0  0  0
   38.0140   29.3770   56.0520 O   0  0  0  0  0  0  0  0  0  0  0  0
   36.2170   31.6540   59.8490 O   0  0  0  0  0  0  0  0  0  0  0  0
   39.9020   30.6740   54.6210 C   0  0  0  0  0  0  0  0  0  0  0  0
   37.8220   30.5460   58.4900 O   0  0  0  0  0  0  0  0  0  0  0  0
   37.9980   32.8020   59.0780 N   0  0  0  0  0  0  0  0  0  0  0  0
   38.3240   29.2310   57.6430 S   0  0  0  0  0  0  0  0  0  0  0  0
   39.4740   28.7990   51.0150 C   0  0  0  0  0  0  0  0  0  0  0  0
   37.8320   33.2680   56.4550 O   0  0  0  0  0  0  0  0  0  0  0  0
   37.9110   33.9420   59.7570 C   0  0  0  0  0  0  0  0  0  0  0  0
   40.2980   29.8140   52.1980 S   0  0  0  0  0  0  0  0  0  0  0  0
   39.8000   30.4150   49.0030 C   0  0  0  0  0  0  0  0  0  0  0  0
   39.5990   38.6910   61.5530 C   0  0  0  0  0  0  0  0  0  0  0  0
  1  7  1  0
  2 15  1  0
  4  2  1  0
  5 31  1  0
  6 25  2  0
  7  8  1  0
  9 35  1  0
  9 22  1  0
 11 18  2  0
 12 29  1  0
 13 20  1  0
 14  8  1  0
 14 26  1  0
 15  3  1  0
 16 32  1  0
 16  4  1  0
 17 10  1  0
 18 30  1  0
 19 23  1  0
 19 24  1  0
 19  5  1  0
 20  2  1  0
 22 15  1  0
 23 26  1  0
 23  5  1  0
 24 29  1  0
 27  6  1  0
 28  6  1  0
 29 21  1  0
 29 27  1  0
 30  1  1  0
 30 33  1  0
 32 28  1  0
 32 13  1  0
 33 10  1  0
 33 14  1  0
 34 18  1  0
 34 17  1  0
 35 22  1  0
M  END
$$$$

     RDKit          3D

 12 11  0  0  0  0  0  0  0  0999 V2000
   39.3160   29.9510   54.2550 C   0  0  0  0  0  0  0  0  0  0  0  0
   38.3630   32.3300   58.4580 S   0  0  0  0  0  0  0  0  0  0  0  0
   39.4260   34.6050   60.2690 C   0  0  0  0  0  0  0  0  0  0  0  0
   37.1690   28.4110   53.4640 C   0  0  0  0  0  0  0  0  0  0  0  0
   39.2620   29.1070   55.7390 C   0  0  0  0  0  0  0  0  0  0  0  0
   38.5340   33.9300   59.2370 C   0  0  0  0  0  0  0  0  0  0  0  0
   37.5110   34.8160   58.8520 N   0  0  0  0  0  0  0  0  0  0  0  0
   39.1300   30.1530   56.8020 C   0  0  0  0  0  0  0  0  0  0  0  0
   37.9180   30.8730   57.2560 C   0  0  0  0  0  0  0  0  0  0  0  0
   36.9150   35.8810   59.4760 C   0  0  0  0  0  0  0  0  0  0  0  0
   38.6690   28.5840   53.4570 C   0  0  0  0  0  0  0  0  0  0  0  0
   36.4490   36.9440   59.2530 O   0  0  0  0  0  0  0  0  0  0  0  0
  1  5  1  0
  2  6  1  0
  5  8  1  0
  6  3  1  0
  7  6  1  0
  7 10  1  0
  8  9  1  0
  9  2  1  0
 11  4  1  0
 11  1  1  0
 12 10  2  0
M  END
$$$$

     RDKit          3D

 35 38  0  0  0  0  0  0  0  0999 V2000
   37.9890   30.2150   56.0180 C   0  0  0  0  0  0  0  0  0  0  0  0
   38.6020   33.4570   48.5520 N   0  0  0  0  0  0  0  0  0  0  0  0
   38.4500   33.5260   59.3740 C   0  0  0  0  0  0  0  0  0  0  0  0
   39.1160   29.8080   53.8300 C   0  0  0  0  0  0  0  0  0  0  0  0
   37.0260   37.2020   59.9700 C   0  0  0  0  0  0  0  0  0  0  0  0
   38.5670   29.3160   54.9450 C   0  0  0  0  0  0  0  0  0  0  0  0
   39.9100   30.2370   48.8840 C   0  0  0  0  0  0  0  0  0  0  0  0
   38.7690   28.5390   59.7390 C   0  0  0  0  0  0  0  0  0  0  0  0
   37.7910   31.1900   58.3450 C   0  0  0  0  0  0  0  0  0  0  0  0
   39.7640   27.4980   59.6680 O   0  0  0  0  0  0  0  0  0  0  0  0
   39.0740   27.0570   53.9580 C   0  0  0  0  0  0  0  0  0  0  0  0
   38.9510   32.5010   49.0320 C   0  0  0  0  0  0  0  0  0  0  0  0
   39.3480   31.2980   49.6410 C   0  0  0  0  0  0  0  0  0  0  0  0
   39.5080   29.0480   52.6730 C   0  0  0  0  0  0  0  0  0  0  0  0
   41.1180   27.6510   57.3980 C   0  0  0  0  0  0  0  0  0  0  0  0
   36.7110   30.5280   55.7160 O   0  0  0  0  0  0  0  0  0  0  0  0
   40.0730   28.9620   49.8150 C   0  0  0  0  0  0  0  0  0  0  0  0
   39.0010   37.2320   61.6180 N   0  0  0  0  0  0  0  0  0  0  0  0
   38.8570   35.8100   60.8860 C   0  0  0  0  0  0  0  0  0  0  0  0
   39.4600   30.9710   51.0390 C   0  0  0  0  0  0  0  0  0  0  0  0
   38.6960   27.9410   54.9380 C   0  0  0  0  0  0  0  0  0  0  0  0
   39.4450   27.5940   52.7860 C   0  0  0  0  0  0  0  0  0  0  0  0
   39.5780   33.5160   60.3360 N   0  0  0  0  0  0  0  0  0  0  0  0
   40.0610   29.5460   51.2510 C   0  0  0  0  0  0  0  0  0  0  0  0
   38.1600   30.0650   57.5920 C   0  0  0  0  0  0  0  0  0  0  0  0
   39.9340   37.7130   62.6190 C   0  0  0  0  0  0  0  0  0  0  0  0
   37.7950   35.8430   60.0760 C   0  0  0  0  0  0  0  0  0  0  0  0
   37.7360   38.0830   61.0140 C   0  0  0  0  0  0  0  0  0  0  0  0
   36.2530   34.5960   58.7930 O   0  0  0  0  0  0  0  0  0  0  0  0
   38.4200   28.7150   58.3340 C   0  0  0  0  0  0  0  0  0  0  0  0
   39.7240   34.6940   61.0140 C   0  0  0  0  0  0  0  0  0  0  0  0
   39.7060   26.5540   51.4810 Cl  0  0  0  0  0  0  0  0  0  0  0  0
   38.3720   32.4990   58.1790 C   0  0  0  0  0  0  0  0  0  0  0  0
   40.9190   27.9290   58.9770 C   0  0  0  0  0  0  0  0  0  0  0  0
   37.4060   34.6430   59.2880 C   0  0  0  0  0  0  0  0  0  0  0  0
  1 16  1  0
  1 25  1  0
  2 12  3  0
  3 33  1  0
  3 23  1  0
  4  6  1  0
  5 27  1  0
  5 28  2  0
  6  1  1  0
  7 13  1  0
  7 17  1  0
 10  8  1  0
 11 21  1  0
 13 12  1  0
 13 20  1  0
 14 22  1  0
 14  4  2  0
 15 34  1  0
 17 24  1  0
 18 26  1  0
 19 31  1  0
 19 18  1  0
 20 24  1  0
 21  6  2  0
 22 11  2  0
 23 31  2  0
 24 14  1  0
 25 30  1  0
 25  9  1  0
 27 19  2  0
 28 18  1  0
 29 35  2  0
 30  8  1  0
 32 22  1  0
 33  9  1  0
 34 10  1  0
 35  3  1  0
 35 27  1  0
M  END
$$$$

     RDKit          3D

 31 33  0  0  0  0  0  0  0  0999 V2000
   39.9860   26.3770   54.6150 C   0  0  0  0  0  0  0  0  0  0  0  0
   39.0870   27.5470   54.6080 C   0  0  0  0  0  0  0  0  0  0  0  0
   38.0790   30.9280   60.4330 C   0  0  0  0  0  0  0  0  0  0  0  0
   38.4170   27.1460   56.9750 C   0  0  0  0  0  0  0  0  0  0  0  0
   39.2770   28.1370   56.0750 C   0  0  0  0  0  0  0  0  0  0  0  0
   38.4270   24.7840   57.8230 C   0  0  0  0  0  0  0  0  0  0  0  0
   38.7060   39.0570   61.0810 O   0  0  0  0  0  0  0  0  0  0  0  0
   39.5430   27.6890   50.5910 C   0  0  0  0  0  0  0  0  0  0  0  0
   37.3110   35.4460   59.7510 C   0  0  0  0  0  0  0  0  0  0  0  0
   40.1730   30.1930   51.1740 C   0  0  0  0  0  0  0  0  0  0  0  0
   39.2190   25.9030   57.0700 C   0  0  0  0  0  0  0  0  0  0  0  0
   38.0860   31.6380   56.1220 O   0  0  0  0  0  0  0  0  0  0  0  0
   40.3500   28.2770   49.7600 O   0  0  0  0  0  0  0  0  0  0  0  0
   38.6720   37.5860   61.7170 N   0  0  0  0  0  0  0  0  0  0  0  0
   38.3680   30.0400   58.0400 C   0  0  0  0  0  0  0  0  0  0  0  0
   36.3630   38.3170   61.2540 O   0  0  0  0  0  0  0  0  0  0  0  0
   39.2530   29.6780   55.8930 C   0  0  0  0  0  0  0  0  0  0  0  0
   37.4140   32.4570   58.8850 N   0  0  0  0  0  0  0  0  0  0  0  0
   38.3810   28.0620   53.8840 O   0  0  0  0  0  0  0  0  0  0  0  0
   40.4500   29.7170   49.7870 C   0  0  0  0  0  0  0  0  0  0  0  0
   38.0490   28.5210   52.5640 C   0  0  0  0  0  0  0  0  0  0  0  0
   37.7420   37.7010   60.9040 C   0  0  0  0  0  0  0  0  0  0  0  0
   37.7630   32.3230   60.3560 C   0  0  0  0  0  0  0  0  0  0  0  0
   37.8360   33.6950   61.0080 C   0  0  0  0  0  0  0  0  0  0  0  0
   37.2310   36.8620   59.8430 C   0  0  0  0  0  0  0  0  0  0  0  0
   37.4420   30.9780   58.9520 C   0  0  0  0  0  0  0  0  0  0  0  0
   36.8360   34.7210   60.7520 C   0  0  0  0  0  0  0  0  0  0  0  0
   39.1830   28.8230   51.5570 C   0  0  0  0  0  0  0  0  0  0  0  0
   38.0540   30.3370   56.5600 C   0  0  0  0  0  0  0  0  0  0  0  0
   39.4720   34.2970   60.5150 C   0  0  0  0  0  0  0  0  0  0  0  0
   39.5290   25.3260   55.6680 C   0  0  0  0  0  0  0  0  0  0  0  0
  1 31  1  0
  2 19  1  0
  2  1  1  0
  2  5  1  0
  4 11  1  0
  5 17  1  0
  5  4  1  0
  7 14  1  0
  8 28  1  0
  9 25  1  0
  9 27  1  0
 10 28  1  0
 11  6  1  0
 13 20  1  0
 13  8  1  0
 17 29  1  0
 18 26  1  0
 18 23  1  0
 20 10  1  0
 21 19  1  0
 22 16  2  0
 22 14  1  0
 23  3  1  0
 23 24  1  0
 24 30  1  0
 25 22  1  0
 26 15  1  0
 26  3  1  0
 27 24  1  0
 28 21  1  0
 29 12  1  0
 29 15  1  0
 31 11  1  0
M  END
$$$$

     RDKit          3D

 37 42  0  0  0  0  0  0  0  0999 V2000
   39.0190   29.3670   57.6580 C   0  0  0  0  0  0  0  0  0  0  0  0
   39.2910   26.7920   54.3680 S   0  0  0  0  0  0  0  0  0  0  0  0
   39.1140   35.9150   61.3590 N   0  0  0  0  0  0  0  0  0  0  0  0
   39.8000   30.9390   49.5990 C   0  0  0  0  0  0  0  0  0  0  0  0
   41.3030   32.5000   62.1730 C   0  0  0  0  0  0  0  0  0  0  0  0
   36.1500   36.4910   59.4570 C   0  0  0  0  0  0  0  0  0  0  0  0
   36.9130   33.4510   59.7800 S   0  0  0  0  0  0  0  0  0  0  0  0
   41.2630   34.3420   62.1360 S   0  0  0  0  0  0  0  0  0  0  0  0
   36.1880   32.8500   60.8430 O   0  0  0  0  0  0  0  0  0  0  0  0
   39.6570   28.3160   50.8310 C   0  0  0  0  0  0  0  0  0  0  0  0
   39.8610   29.2960   51.7070 C   0  0  0  0  0  0  0  0  0  0  0  0
   38.5430   28.0770   55.4980 C   0  0  0  0  0  0  0  0  0  0  0  0
   36.9520   36.6910   60.6060 C   0  0  0  0  0  0  0  0  0  0  0  0
   39.5000   27.2910   51.6660 N   0  0  0  0  0  0  0  0  0  0  0  0
   40.2660   31.5880   62.8980 C   0  0  0  0  0  0  0  0  0  0  0  0
   40.6060   30.1120   62.7350 C   0  0  0  0  0  0  0  0  0  0  0  0
   38.0060   35.6800   60.7590 C   0  0  0  0  0  0  0  0  0  0  0  0
   38.1280   31.9370   55.2390 C   0  0  0  0  0  0  0  0  0  0  0  0
   40.2330   30.8990   51.2450 S   0  0  0  0  0  0  0  0  0  0  0  0
   39.6170   28.1830   49.3920 C   0  0  0  0  0  0  0  0  0  0  0  0
   39.1430   33.8460   60.7750 N   0  0  0  0  0  0  0  0  0  0  0  0
   38.6860   30.6600   57.1970 C   0  0  0  0  0  0  0  0  0  0  0  0
   36.8060   37.9790   61.2150 N   0  0  0  0  0  0  0  0  0  0  0  0
   40.4630   27.3650   56.7870 O   0  0  0  0  0  0  0  0  0  0  0  0
   39.8700   29.7100   48.7120 C   0  0  0  0  0  0  0  0  0  0  0  0
   37.5330   32.2370   58.7730 C   0  0  0  0  0  0  0  0  0  0  0  0
   39.5350   28.5510   56.5510 C   0  0  0  0  0  0  0  0  0  0  0  0
   37.9810   34.3140   60.3300 N   0  0  0  0  0  0  0  0  0  0  0  0
   38.4690   32.2020   57.6450 C   0  0  0  0  0  0  0  0  0  0  0  0
   36.1820   36.9500   61.9040 C   0  0  0  0  0  0  0  0  0  0  0  0
   39.7600   34.7410   61.3980 C   0  0  0  0  0  0  0  0  0  0  0  0
   38.5200   32.9080   56.3960 C   0  0  0  0  0  0  0  0  0  0  0  0
   36.3320   34.4370   58.7670 O   0  0  0  0  0  0  0  0  0  0  0  0
   39.5170   27.7190   52.8740 C   0  0  0  0  0  0  0  0  0  0  0  0
   38.2400   30.6270   55.8010 N   0  0  0  0  0  0  0  0  0  0  0  0
   39.6350   28.9820   52.9850 O   0  0  0  0  0  0  0  0  0  0  0  0
   37.8320   29.3490   55.1580 C   0  0  0  0  0  0  0  0  0  0  0  0
  3 31  2  0
  4 19  1  0
  5 15  1  0
  7 28  1  0
  7  9  2  0
  8  5  1  0
 10 14  1  0
 10 11  2  0
 11 36  1  0
 12  2  1  0
 12 27  1  0
 13  6  1  0
 13 17  1  0
 13 23  1  0
 13 30  1  0
 14 34  2  0
 16 15  1  0
 17  3  1  0
 18 35  1  0
 18 32  1  0
 19 11  1  0
 20 10  1  0
 21 31  1  0
 22 29  1  0
 22  1  1  0
 23 30  1  0
 25 20  1  0
 25  4  1  0
 26  7  1  0
 27 24  1  0
 27  1  1  0
 28 17  1  0
 28 21  1  0
 29 26  1  0
 31  8  1  0
 32 29  1  0
 33  7  2  0
 34 36  1  0
 34  2  1  0
 35 37  1  0
 35 22  1  0
 37 12  1  0
M  END
$$$$

     RDKit          3D

 26 28  0  0  0  0  0  0  0  0999 V2000
   38.4480   32.4360   58.7630 C   0  0  0  0  0  0  0  0  0  0  0  0
   37.7450   38.0710   60.5150 O   0  0  0  0  0  0  0  0  0  0  0  0
   38.0210   29.6040   59.2990 C   0  0  0  0  0  0  0  0  0  0  0  0
   40.3380   30.3780   51.0350 C   0  0  0  0  0  0  0  0  0  0  0  0
   38.1270   29.6470   58.0310 C   0  0  0  0  0  0  0  0  0  0  0  0
   38.9560   28.5750   51.6110 C   0  0  0  0  0  0  0  0  0  0  0  0
   38.5430   32.7580   57.2620 C   0  0  0  0  0  0  0  0  0  0  0  0
   37.2560   35.8000   60.1530 C   0  0  0  0  0  0  0  0  0  0  0  0
   38.3190   28.5890   57.0430 C   0  0  0  0  0  0  0  0  0  0  0  0
   39.6370   30.1470   53.3400 C   0  0  0  0  0  0  0  0  0  0  0  0
   39.6170   33.0140   60.9680 C   0  0  0  0  0  0  0  0  0  0  0  0
   39.7260   29.2630   50.6610 C   0  0  0  0  0  0  0  0  0  0  0  0
   36.8290   36.9110   60.5190 C   0  0  0  0  0  0  0  0  0  0  0  0
   37.9620   34.6520   59.9020 C   0  0  0  0  0  0  0  0  0  0  0  0
   38.8890   29.0030   53.0160 C   0  0  0  0  0  0  0  0  0  0  0  0
   38.7630   30.7020   55.7160 C   0  0  0  0  0  0  0  0  0  0  0  0
   38.2170   30.9250   58.8150 C   0  0  0  0  0  0  0  0  0  0  0  0
   38.3520   29.1740   55.6080 C   0  0  0  0  0  0  0  0  0  0  0  0
   38.0850   31.7960   56.2790 C   0  0  0  0  0  0  0  0  0  0  0  0
   39.8460   28.7610   49.4040 O   0  0  0  0  0  0  0  0  0  0  0  0
   38.1930   28.4360   54.1920 C   0  0  0  0  0  0  0  0  0  0  0  0
   38.7910   27.2550   57.2310 C   0  0  0  0  0  0  0  0  0  0  0  0
   38.3970   33.2520   59.9640 C   0  0  0  0  0  0  0  0  0  0  0  0
   40.2380   30.8390   52.2570 C   0  0  0  0  0  0  0  0  0  0  0  0
   39.3690   27.0810   58.6230 C   0  0  0  0  0  0  0  0  0  0  0  0
   39.5300   26.5260   56.1350 C   0  0  0  0  0  0  0  0  0  0  0  0
  1 17  2  0
  1 23  1  0
  2 13  1  0
  4 24  1  0
  5 17  1  0
  5  3  1  0
  6 15  2  0
  7  1  1  0
  8 13  1  0
  9 22  1  0
  9  5  1  0
 12  4  2  0
 12  6  1  0
 14 23  1  0
 14  8  3  0
 15 10  1  0
 15 21  1  0
 16 19  1  0
 17  3  1  0
 18 21  1  0
 18 16  1  0
 18  9  1  0
 19  7  1  0
 20 12  1  0
 22 25  1  0
 23 11  1  0
 24 10  2  0
 26 22  1  0
M  END
$$$$

     RDKit          3D

 53 60  0  0  0  0  0  0  0  0999 V2000
   40.9130   30.3980   48.1660 C   0  0  0  0  0  0  0  0  0  0  0  0
   39.3530   27.9620   49.4270 O   0  0  0  0  0  0  0  0  0  0  0  0
   39.8280   27.8560   57.9060 C   0  0  0  0  0  0  0  0  0  0  0  0
   38.5990   24.7350   57.9470 C   0  0  0  0  0  0  0  0  0  0  0  0
   38.2150   24.2800   56.7490 C   0  0  0  0  0  0  0  0  0  0  0  0
   38.6900   31.9010   55.2970 C   0  0  0  0  0  0  0  0  0  0  0  0
   39.7810   30.3460   49.2570 C   0  0  0  0  0  0  0  0  0  0  0  0
   37.5970   31.5380   54.6940 O   0  0  0  0  0  0  0  0  0  0  0  0
   38.8030   37.8800   61.9380 C   0  0  0  0  0  0  0  0  0  0  0  0
   38.0540   33.9300   56.1880 O   0  0  0  0  0  0  0  0  0  0  0  0
   40.2650   26.1100   54.4780 C   0  0  0  0  0  0  0  0  0  0  0  0
   41.2140   28.0630   57.6990 O   0  0  0  0  0  0  0  0  0  0  0  0
   38.2990   32.5720   59.1210 C   0  0  0  0  0  0  0  0  0  0  0  0
   38.5190   24.8270   55.5060 C   0  0  0  0  0  0  0  0  0  0  0  0
   39.1480   27.1370   56.8260 C   0  0  0  0  0  0  0  0  0  0  0  0
   38.3680   35.7210   61.2900 C   0  0  0  0  0  0  0  0  0  0  0  0
   38.7290   29.3490   49.1120 C   0  0  0  0  0  0  0  0  0  0  0  0
   38.5480   39.0650   61.6460 N   0  0  0  0  0  0  0  0  0  0  0  0
   39.9830   26.3560   55.8120 C   0  0  0  0  0  0  0  0  0  0  0  0
   39.7050   29.9910   54.8830 C   0  0  0  0  0  0  0  0  0  0  0  0
   39.0420   30.5480   57.3210 C   0  0  0  0  0  0  0  0  0  0  0  0
   37.2110   38.9350   61.1760 C   0  0  0  0  0  0  0  0  0  0  0  0
   40.0850   35.4370   61.7840 S   0  0  0  0  0  0  0  0  0  0  0  0
   37.4600   33.6970   58.7970 N   0  0  0  0  0  0  0  0  0  0  0  0
   38.9630   29.8040   56.3200 C   0  0  0  0  0  0  0  0  0  0  0  0
   38.9340   28.6140   51.6170 C   0  0  0  0  0  0  0  0  0  0  0  0
   38.9460   29.5830   47.4500 C   0  0  0  0  0  0  0  0  0  0  0  0
   40.0190   36.9860   62.4460 C   0  0  0  0  0  0  0  0  0  0  0  0
   37.4880   30.3760   54.2210 C   0  0  0  0  0  0  0  0  0  0  0  0
   36.8900   37.6570   61.0490 N   0  0  0  0  0  0  0  0  0  0  0  0
   36.4000   33.6560   61.7370 N   0  0  0  0  0  0  0  0  0  0  0  0
   39.2030   28.5360   58.9180 C   0  0  0  0  0  0  0  0  0  0  0  0
   39.8190   31.3380   54.8610 O   0  0  0  0  0  0  0  0  0  0  0  0
   39.9270   28.1610   50.5740 C   0  0  0  0  0  0  0  0  0  0  0  0
   35.1870   33.5200   62.2390 O   0  0  0  0  0  0  0  0  0  0  0  0
   39.2400   30.9030   51.6630 C   0  0  0  0  0  0  0  0  0  0  0  0
   39.2280   29.7800   52.5420 C   0  0  0  0  0  0  0  0  0  0  0  0
   39.5460   27.3290   51.6440 C   0  0  0  0  0  0  0  0  0  0  0  0
   38.6110   32.7200   56.1620 O   0  0  0  0  0  0  0  0  0  0  0  0
   39.4630   25.6050   55.2390 C   0  0  0  0  0  0  0  0  0  0  0  0
   40.2420   30.6140   50.6290 C   0  0  0  0  0  0  0  0  0  0  0  0
   38.7090   29.5520   53.8010 C   0  0  0  0  0  0  0  0  0  0  0  0
   38.4630   28.5400   56.1370 O   0  0  0  0  0  0  0  0  0  0  0  0
   34.9800   33.1410   59.7290 O   0  0  0  0  0  0  0  0  0  0  0  0
   40.2590   25.8700   53.0790 C   0  0  0  0  0  0  0  0  0  0  0  0
   36.1750   33.7810   59.6880 C   0  0  0  0  0  0  0  0  0  0  0  0
   39.4480   25.8960   58.0790 C   0  0  0  0  0  0  0  0  0  0  0  0
   37.7810   35.2330   60.4390 C   0  0  0  0  0  0  0  0  0  0  0  0
   36.4060   34.7860   60.7780 C   0  0  0  0  0  0  0  0  0  0  0  0
   38.1520   31.3700   58.1690 C   0  0  0  0  0  0  0  0  0  0  0  0
   38.1220   35.0510   59.0020 C   0  0  0  0  0  0  0  0  0  0  0  0
   37.8680   36.9990   61.6100 N   0  0  0  0  0  0  0  0  0  0  0  0
   40.8910   37.3700   63.3140 O   0  0  0  0  0  0  0  0  0  0  0  0
  2 34  1  0
  3 32  2  0
  4 47  1  0
  5  4  2  0
  6 39  1  0
  7  1  1  0
  7 41  1  0
  8  6  1  0
  9 28  1  0
 11 45  1  0
 11 40  1  0
 11 19  1  0
 12  3  1  0
 14  5  1  0
 15 43  1  0
 15  3  1  0
 15 47  1  0
 16 52  1  0
 16 23  1  0
 17 27  1  0
 17  7  1  0
 17  2  1  0
 18  9  2  0
 19 15  1  0
 20 25  1  0
 21 50  1  0
 22 18  1  0
 23 28  1  0
 24 51  1  0
 24 13  1  0
 24 46  1  0
 25 21  1  0
 26 38  1  0
 26 37  1  0
 28 53  2  0
 29  8  1  0
 30 22  2  0
 30 52  1  0
 31 35  1  0
 33 20  1  0
 33  6  1  0
 34 26  1  0
 34 38  1  0
 36 37  1  0
 37 42  1  0
 39 10  1  0
 40 14  1  0
 40 19  1  0
 41 36  1  0
 42 29  1  0
 42 20  1  0
 43 25  1  0
 46 44  2  0
 46 49  1  0
 48 49  1  0
 48 16  1  0
 49 31  1  0
 50 13  1  0
 51 48  1  0
 52  9  1  0
M  END
$$$$

     RDKit          3D

 36 38  0  0  0  0  0  0  0  0999 V2000
   37.8770   27.4030   56.1560 O   0  0  0  0  0  0  0  0  0  0  0  0
   39.6900   34.6280   61.6560 C   0  0  0  0  0  0  0  0  0  0  0  0
   36.4880   30.8550   59.4360 C   0  0  0  0  0  0  0  0  0  0  0  0
   40.3930   35.3100   62.8160 C   0  0  0  0  0  0  0  0  0  0  0  0
   39.3280   30.0240   59.3350 O   0  0  0  0  0  0  0  0  0  0  0  0
   37.6930   35.2900   60.2580 C   0  0  0  0  0  0  0  0  0  0  0  0
   40.2900   27.8510   50.9880 C   0  0  0  0  0  0  0  0  0  0  0  0
   38.6340   35.5500   61.2850 N   0  0  0  0  0  0  0  0  0  0  0  0
   37.2970   36.5390   59.6620 N   0  0  0  0  0  0  0  0  0  0  0  0
   39.7190   26.1610   55.2910 C   0  0  0  0  0  0  0  0  0  0  0  0
   38.7850   28.8790   52.8430 C   0  0  0  0  0  0  0  0  0  0  0  0
   40.8670   27.9060   49.8570 O   0  0  0  0  0  0  0  0  0  0  0  0
   40.0500   37.4700   63.8980 O   0  0  0  0  0  0  0  0  0  0  0  0
   39.6270   31.4530   51.9470 C   0  0  0  0  0  0  0  0  0  0  0  0
   36.1040   32.4980   61.4980 C   0  0  0  0  0  0  0  0  0  0  0  0
   39.6490   36.5410   63.0150 C   0  0  0  0  0  0  0  0  0  0  0  0
   39.6820   30.6360   49.6620 C   0  0  0  0  0  0  0  0  0  0  0  0
   38.7180   27.9480   53.7700 C   0  0  0  0  0  0  0  0  0  0  0  0
   38.6330   30.0650   58.3700 C   0  0  0  0  0  0  0  0  0  0  0  0
   40.4720   26.6750   51.7770 N   0  0  0  0  0  0  0  0  0  0  0  0
   36.6470   32.6010   60.0960 C   0  0  0  0  0  0  0  0  0  0  0  0
   38.9690   26.5750   56.4430 C   0  0  0  0  0  0  0  0  0  0  0  0
   36.7210   34.2740   59.8590 C   0  0  0  0  0  0  0  0  0  0  0  0
   35.8000   34.9800   59.0210 C   0  0  0  0  0  0  0  0  0  0  0  0
   39.1600   31.6090   49.1630 O   0  0  0  0  0  0  0  0  0  0  0  0
   38.4780   36.7400   62.0570 C   0  0  0  0  0  0  0  0  0  0  0  0
   40.2030   26.2600   52.9220 C   0  0  0  0  0  0  0  0  0  0  0  0
   39.0760   29.4640   57.0590 C   0  0  0  0  0  0  0  0  0  0  0  0
   37.9440   28.8100   56.2990 C   0  0  0  0  0  0  0  0  0  0  0  0
   38.8530   25.6860   57.5920 C   0  0  0  0  0  0  0  0  0  0  0  0
   39.5260   26.7860   53.9700 C   0  0  0  0  0  0  0  0  0  0  0  0
   39.5720   28.9470   51.5620 C   0  0  0  0  0  0  0  0  0  0  0  0
   39.6210   30.3170   51.0290 C   0  0  0  0  0  0  0  0  0  0  0  0
   37.4760   30.6450   58.4130 N   0  0  0  0  0  0  0  0  0  0  0  0
   36.1520   36.4170   59.0960 N   0  0  0  0  0  0  0  0  0  0  0  0
   40.3280   29.8570   48.8630 O   0  0  0  0  0  0  0  0  0  0  0  0
  1 29  1  0
  1 22  1  0
  2  4  2  0
  3 21  1  0
  4 16  1  0
  6  8  1  0
  7 32  1  0
  7 20  1  0
  8  2  1  0
  8 26  1  0
  9  6  1  0
 10 22  1  0
 11 18  2  0
 12  7  2  0
 16 13  1  0
 17 33  1  0
 18 31  1  0
 19 34  1  0
 19  5  2  0
 20 27  2  0
 21 15  1  0
 22 30  1  0
 23 21  1  0
 23  6  1  0
 24 35  1  0
 24 23  1  0
 25 17  1  0
 26 16  2  0
 27 31  1  0
 28 19  1  0
 29 28  1  0
 31 10  2  3
 32 33  1  0
 32 11  1  0
 33 14  1  0
 34  3  1  0
 35  9  1  0
 36 17  2  0
M  END
$$$$

     RDKit          3D

 32 33  0  0  0  0  0  0  0  0999 V2000
   38.6590   31.8370   58.2370 C   0  0  0  0  0  0  0  0  0  0  0  0
   39.7230   30.8380   54.2440 C   0  0  0  0  0  0  0  0  0  0  0  0
   39.0540   33.2030   60.4360 C   0  0  0  0  0  0  0  0  0  0  0  0
   35.9750   33.8280   60.1880 C   0  0  0  0  0  0  0  0  0  0  0  0
   38.1420   32.7470   54.5730 O   0  0  0  0  0  0  0  0  0  0  0  0
   38.2140   27.1950   57.6960 C   0  0  0  0  0  0  0  0  0  0  0  0
   36.9970   34.7800   60.0480 C   0  0  0  0  0  0  0  0  0  0  0  0
   40.0360   30.4520   49.9340 C   0  0  0  0  0  0  0  0  0  0  0  0
   39.7600   30.4970   51.2700 C   0  0  0  0  0  0  0  0  0  0  0  0
   39.0440   35.6630   60.9350 C   0  0  0  0  0  0  0  0  0  0  0  0
   40.0050   29.4440   49.1700 C   0  0  0  0  0  0  0  0  0  0  0  0
   36.6160   36.0260   59.5330 C   0  0  0  0  0  0  0  0  0  0  0  0
   37.3450   37.1020   60.0400 C   0  0  0  0  0  0  0  0  0  0  0  0
   36.0160   31.2710   59.9490 O   0  0  0  0  0  0  0  0  0  0  0  0
   37.7080   30.9890   61.3940 O   0  0  0  0  0  0  0  0  0  0  0  0
   40.3260   31.6070   49.2180 O   0  0  0  0  0  0  0  0  0  0  0  0
   38.4740   36.9780   60.7800 C   0  0  0  0  0  0  0  0  0  0  0  0
   37.8530   30.9480   57.4380 N   0  0  0  0  0  0  0  0  0  0  0  0
   38.8640   31.6480   55.2350 C   0  0  0  0  0  0  0  0  0  0  0  0
   39.7280   28.1280   49.3240 C   0  0  0  0  0  0  0  0  0  0  0  0
   38.8770   29.8400   53.4330 C   0  0  0  0  0  0  0  0  0  0  0  0
   39.2910   27.5190   50.5110 C   0  0  0  0  0  0  0  0  0  0  0  0
   37.5430   29.6410   58.0820 C   0  0  0  0  0  0  0  0  0  0  0  0
   38.1460   32.3320   59.5230 C   0  0  0  0  0  0  0  0  0  0  0  0
   37.1600   31.4580   60.2850 C   0  0  0  0  0  0  0  0  0  0  0  0
   37.8930   30.9220   56.0510 C   0  0  0  0  0  0  0  0  0  0  0  0
   38.3410   34.5120   60.4560 C   0  0  0  0  0  0  0  0  0  0  0  0
   39.0810   28.1980   51.6910 C   0  0  0  0  0  0  0  0  0  0  0  0
   39.2850   26.4110   58.4960 C   0  0  0  0  0  0  0  0  0  0  0  0
   39.2960   29.5200   52.0900 C   0  0  0  0  0  0  0  0  0  0  0  0
   38.6640   28.6680   57.8230 C   0  0  0  0  0  0  0  0  0  0  0  0
   38.5570   28.7640   54.2490 O   0  0  0  0  0  0  0  0  0  0  0  0
  2 19  1  0
  3 27  1  0
  6 31  1  0
  6 29  1  0
  7  4  1  0
  7 27  1  0
  8  9  1  0
  9 30  1  0
 11 20  1  0
 11  8  2  0
 12 13  1  0
 12  7  1  0
 13 17  2  0
 14 25  2  0
 16  8  1  0
 17 10  1  0
 18 23  1  0
 18  1  1  0
 19  5  1  0
 19 26  1  0
 20 22  2  0
 21  2  1  0
 21 32  1  0
 22 28  1  0
 24  1  1  0
 24 25  1  0
 24  3  1  0
 25 15  1  0
 26 18  1  0
 27 10  2  0
 28 30  2  0
 30 21  1  0
 31 23  1  0
M  END
$$$$

     RDKit          3D

 25 25  0  0  0  0  0  0  0  0999 V2000
   38.2550   28.5730   56.1760 C   0  0  0  0  0  0  0  0  0  0  0  0
   38.8620   29.4110   53.8850 C   0  0  0  0  0  0  0  0  0  0  0  0
   38.1180   31.9590   58.0820 C   0  0  0  0  0  0  0  0  0  0  0  0
   39.6240   26.6720   57.4770 C   0  0  0  0  0  0  0  0  0  0  0  0
   39.2960   28.8920   52.7460 N   0  0  0  0  0  0  0  0  0  0  0  0
   39.7550   27.8910   50.6220 C   0  0  0  0  0  0  0  0  0  0  0  0
   36.6540   36.8980   59.4110 O   0  0  0  0  0  0  0  0  0  0  0  0
   38.2760   35.9800   60.9650 C   0  0  0  0  0  0  0  0  0  0  0  0
   37.5070   33.7810   59.7410 C   0  0  0  0  0  0  0  0  0  0  0  0
   39.8310   30.9950   51.6990 C   0  0  0  0  0  0  0  0  0  0  0  0
   37.6720   33.2510   58.3470 N   0  0  0  0  0  0  0  0  0  0  0  0
   38.6400   31.4000   59.0500 O   0  0  0  0  0  0  0  0  0  0  0  0
   37.2390   28.3830   57.2490 C   0  0  0  0  0  0  0  0  0  0  0  0
   39.5930   27.7460   56.3930 C   0  0  0  0  0  0  0  0  0  0  0  0
   39.8350   28.8810   51.4600 C   0  0  0  0  0  0  0  0  0  0  0  0
   37.5570   37.1700   60.3370 C   0  0  0  0  0  0  0  0  0  0  0  0
   39.6170   30.5750   48.9510 O   0  0  0  0  0  0  0  0  0  0  0  0
   38.0370   31.3010   56.8200 N   0  0  0  0  0  0  0  0  0  0  0  0
   39.3040   30.4280   54.8520 C   0  0  0  0  0  0  0  0  0  0  0  0
   37.5490   28.4310   54.4990 S   0  0  0  0  0  0  0  0  0  0  0  0
   40.6350   29.8900   49.5570 C   0  0  0  0  0  0  0  0  0  0  0  0
   37.7920   38.2730   60.6890 O   0  0  0  0  0  0  0  0  0  0  0  0
   38.7390   30.0930   56.2620 C   0  0  0  0  0  0  0  0  0  0  0  0
   40.5180   29.9750   51.0240 C   0  0  0  0  0  0  0  0  0  0  0  0
   38.5520   34.8640   60.0180 C   0  0  0  0  0  0  0  0  0  0  0  0
  1 23  1  0
  1 14  1  0
  1 13  1  0
  2  5  1  0
  2 20  1  0
  2 19  1  0
  3 11  1  0
  3 12  2  0
  6 15  2  0
  7 16  2  0
  9 25  1  0
 11  9  1  0
 14  4  1  0
 15  5  1  0
 16 22  1  0
 16  8  1  0
 17 21  1  0
 18  3  1  0
 19 23  1  0
 20  1  1  0
 21 24  1  0
 23 18  1  0
 24 15  1  0
 24 10  1  0
 25  8  1  0
M  END
$$$$

     RDKit          3D

 14 14  0  0  0  0  0  0  0  0999 V2000
   37.9360   31.5680   55.7480 C   0  0  0  0  0  0  0  0  0  0  0  0
   35.9130   34.2570   59.8360 C   0  0  0  0  0  0  0  0  0  0  0  0
   37.4050   34.1770   59.5550 C   0  0  0  0  0  0  0  0  0  0  0  0
   40.2060   34.9360   62.0590 C   0  0  0  0  0  0  0  0  0  0  0  0
   38.5750   34.6770   60.2640 N   0  0  0  0  0  0  0  0  0  0  0  0
   38.6990   34.0660   60.3710 N   0  0  0  0  0  0  0  0  0  0  0  0
   38.4590   32.7980   57.9000 C   0  0  0  0  0  0  0  0  0  0  0  0
   39.6450   33.4930   61.6260 C   0  0  0  0  0  0  0  0  0  0  0  0
   38.3150   36.1170   60.8020 C   0  0  0  0  0  0  0  0  0  0  0  0
   38.6750   31.4610   54.4890 C   0  0  0  0  0  0  0  0  0  0  0  0
   37.5490   33.7940   58.3070 N   0  0  0  0  0  0  0  0  0  0  0  0
   38.5660   31.7910   57.0360 C   0  0  0  0  0  0  0  0  0  0  0  0
   39.3530   36.1520   61.8670 C   0  0  0  0  0  0  0  0  0  0  0  0
   37.2790   30.1500   55.9770 C   0  0  0  0  0  0  0  0  0  0  0  0
  1 14  1  0
  1 12  1  0
  3  2  1  0
  3  5  1  0
  5  6  1  0
  5  9  1  0
  6  8  1  0
  7 11  1  0
  8  4  1  0
  9 13  1  0
 10  1  1  0
 11  3  1  0
 12  7  1  0
 13  4  1  0
M  END
$$$$

     RDKit          3D

 44 48  0  0  0  0  0  0  0  0999 V2000
   37.8850   26.3740   54.8080 C   0  0  0  0  0  0  0  0  0  0  0  0
   38.3850   26.0510   56.2060 C   0  0  0  0  0  0  0  0  0  0  0  0
   38.4990   31.9740   58.4650 C   0  0  0  0  0  0  0  0  0  0  0  0
   38.1790   27.2240   57.1230 C   0  0  0  0  0  0  0  0  0  0  0  0
   39.5450   27.0130   51.6580 O   0  0  0  0  0  0  0  0  0  0  0  0
   37.4870   24.7760   56.5830 C   0  0  0  0  0  0  0  0  0  0  0  0
   39.7220   29.7080   47.7720 O   0  0  0  0  0  0  0  0  0  0  0  0
   38.8290   28.3770   59.3620 O   0  0  0  0  0  0  0  0  0  0  0  0
   40.3040   36.2950   61.9160 C   0  0  0  0  0  0  0  0  0  0  0  0
   38.0920   38.5870   61.3300 O   0  0  0  0  0  0  0  0  0  0  0  0
   35.9820   34.3860   61.6410 C   0  0  0  0  0  0  0  0  0  0  0  0
   39.0620   26.0200   58.9520 O   0  0  0  0  0  0  0  0  0  0  0  0
   40.0970   28.3030   47.9620 C   0  0  0  0  0  0  0  0  0  0  0  0
   39.2270   27.2510   58.3770 S   0  0  0  0  0  0  0  0  0  0  0  0
   39.8220   25.6730   56.1870 C   0  0  0  0  0  0  0  0  0  0  0  0
   39.0600   28.5070   53.9550 C   0  0  0  0  0  0  0  0  0  0  0  0
   36.4670   35.0010   59.4970 C   0  0  0  0  0  0  0  0  0  0  0  0
   38.9710   30.6210   55.1330 C   0  0  0  0  0  0  0  0  0  0  0  0
   37.4820   32.8290   58.9870 N   0  0  0  0  0  0  0  0  0  0  0  0
   36.2920   35.5030   60.8020 N   0  0  0  0  0  0  0  0  0  0  0  0
   39.5700   30.4830   52.7400 C   0  0  0  0  0  0  0  0  0  0  0  0
   39.2240   35.7270   60.9760 C   0  0  0  0  0  0  0  0  0  0  0  0
   37.9750   30.5330   58.8930 C   0  0  0  0  0  0  0  0  0  0  0  0
   39.4110   28.2270   51.5730 C   0  0  0  0  0  0  0  0  0  0  0  0
   37.6840   36.0480   61.1870 C   0  0  0  0  0  0  0  0  0  0  0  0
   39.1900   29.7210   59.1440 C   0  0  0  0  0  0  0  0  0  0  0  0
   38.8870   29.2660   55.1920 C   0  0  0  0  0  0  0  0  0  0  0  0
   39.9610   30.5880   48.8570 C   0  0  0  0  0  0  0  0  0  0  0  0
   37.2650   30.3980   60.0990 O   0  0  0  0  0  0  0  0  0  0  0  0
   37.4640   33.9310   59.9200 C   0  0  0  0  0  0  0  0  0  0  0  0
   38.9610   27.0420   54.0270 O   0  0  0  0  0  0  0  0  0  0  0  0
   38.0420   31.2580   56.0500 N   0  0  0  0  0  0  0  0  0  0  0  0
   39.3740   29.1450   52.7320 C   0  0  0  0  0  0  0  0  0  0  0  0
   40.0550   27.7470   49.3440 C   0  0  0  0  0  0  0  0  0  0  0  0
   37.0040   37.6220   59.4200 O   0  0  0  0  0  0  0  0  0  0  0  0
   39.5250   33.3600   56.4290 C   0  0  0  0  0  0  0  0  0  0  0  0
   37.5850   37.4540   60.5090 C   0  0  0  0  0  0  0  0  0  0  0  0
   36.3770   33.3280   60.8300 C   0  0  0  0  0  0  0  0  0  0  0  0
   39.1300   30.1320   50.0300 C   0  0  0  0  0  0  0  0  0  0  0  0
   39.3690   31.2160   53.9300 C   0  0  0  0  0  0  0  0  0  0  0  0
   38.6080   32.2290   56.9340 C   0  0  0  0  0  0  0  0  0  0  0  0
   39.5840   28.7230   50.3140 N   0  0  0  0  0  0  0  0  0  0  0  0
   38.1880   33.5680   56.5540 O   0  0  0  0  0  0  0  0  0  0  0  0
   40.7390   27.6740   57.8660 O   0  0  0  0  0  0  0  0  0  0  0  0
  1  2  1  0
  2  6  1  0
  2  4  1  0
  3 23  1  0
  3 19  1  0
  4 14  1  0
  7 13  1  0
  7 28  1  0
 13 34  1  0
 14 12  1  0
 14  8  1  0
 15  2  1  0
 16 31  1  0
 16 27  1  0
 17 30  1  0
 17 20  1  0
 18 27  2  0
 18 32  1  0
 20 25  1  0
 20 11  1  0
 21 40  2  0
 22  9  1  0
 23 26  1  0
 23 29  1  0
 24  5  2  0
 24 33  1  0
 25 22  1  0
 26  8  1  0
 28 39  1  0
 30 19  1  0
 30 38  1  0
 31  1  1  0
 32 41  1  0
 33 21  1  0
 33 16  2  0
 34 42  1  0
 35 37  2  0
 36 43  1  0
 37 25  1  0
 37 10  1  0
 38 11  1  0
 39 42  1  0
 40 18  1  0
 41 36  1  0
 41  3  1  0
 42 24  1  0
 43 41  1  0
 44 14  1  0
M  END
$$$$

     RDKit          3D

 38 42  0  0  0  0  0  0  0  0999 V2000
   39.3180   34.8540   61.3060 C   0  0  0  0  0  0  0  0  0  0  0  0
   38.9930   29.8160   53.9320 C   0  0  0  0  0  0  0  0  0  0  0  0
   39.6620   28.0060   50.7150 C   0  0  0  0  0  0  0  0  0  0  0  0
   39.5640   32.0760   49.6480 O   0  0  0  0  0  0  0  0  0  0  0  0
   39.6520   28.0800   56.1350 N   0  0  0  0  0  0  0  0  0  0  0  0
   38.7790   31.2370   56.0750 C   0  0  0  0  0  0  0  0  0  0  0  0
   39.0470   31.2720   59.7230 C   0  0  0  0  0  0  0  0  0  0  0  0
   39.1600   28.8000   53.1150 N   0  0  0  0  0  0  0  0  0  0  0  0
   39.4950   30.3660   51.2840 C   0  0  0  0  0  0  0  0  0  0  0  0
   39.8710   28.3320   49.4170 C   0  0  0  0  0  0  0  0  0  0  0  0
   38.9570   24.6310   55.0510 C   0  0  0  0  0  0  0  0  0  0  0  0
   39.4450   25.9580   55.6890 C   0  0  0  0  0  0  0  0  0  0  0  0
   38.6950   32.7710   60.1520 C   0  0  0  0  0  0  0  0  0  0  0  0
   39.8780   25.9780   57.0480 C   0  0  0  0  0  0  0  0  0  0  0  0
   38.8030   33.3880   61.4050 N   0  0  0  0  0  0  0  0  0  0  0  0
   36.6440   30.0970   55.0830 C   0  0  0  0  0  0  0  0  0  0  0  0
   38.7900   32.8360   48.7410 C   0  0  0  0  0  0  0  0  0  0  0  0
   39.6910   30.7210   49.9660 C   0  0  0  0  0  0  0  0  0  0  0  0
   38.1530   30.2620   55.0250 C   0  0  0  0  0  0  0  0  0  0  0  0
   35.8760   35.1230   61.6490 C   0  0  0  0  0  0  0  0  0  0  0  0
   39.3640   27.1620   55.1160 C   0  0  0  0  0  0  0  0  0  0  0  0
   38.1270   33.1080   57.5260 C   0  0  0  0  0  0  0  0  0  0  0  0
   37.7520   38.1620   61.4350 C   0  0  0  0  0  0  0  0  0  0  0  0
   38.0840   33.8080   56.5030 O   0  0  0  0  0  0  0  0  0  0  0  0
   36.9550   37.2290   60.5890 C   0  0  0  0  0  0  0  0  0  0  0  0
   39.5200   29.0040   51.6670 C   0  0  0  0  0  0  0  0  0  0  0  0
   39.2320   27.4580   53.6470 C   0  0  0  0  0  0  0  0  0  0  0  0
   39.7030   32.5800   62.3860 C   0  0  0  0  0  0  0  0  0  0  0  0
   39.9790   27.2960   57.3790 C   0  0  0  0  0  0  0  0  0  0  0  0
   37.5140   34.7530   59.6560 C   0  0  0  0  0  0  0  0  0  0  0  0
   38.5610   35.7720   62.0090 C   0  0  0  0  0  0  0  0  0  0  0  0
   39.8900   29.7020   49.0010 C   0  0  0  0  0  0  0  0  0  0  0  0
   38.2850   30.7440   58.5880 C   0  0  0  0  0  0  0  0  0  0  0  0
   37.3080   35.7550   60.8730 C   0  0  0  0  0  0  0  0  0  0  0  0
   37.9670   37.1440   62.7580 C   0  0  0  0  0  0  0  0  0  0  0  0
   39.3660   26.5270   53.0210 O   0  0  0  0  0  0  0  0  0  0  0  0
   38.3100   31.6410   57.4070 N   0  0  0  0  0  0  0  0  0  0  0  0
   38.1890   33.6220   58.8540 C   0  0  0  0  0  0  0  0  0  0  0  0
  1 15  1  0
  2 19  1  0
  3 26  1  0
  4 18  1  0
  5 29  1  0
  6 37  1  0
  8 27  1  0
  8  2  1  0
  9 26  2  0
 10  3  2  0
 11 12  1  0
 12 14  2  0
 13  7  1  0
 13 15  1  0
 14 29  1  0
 15 28  1  0
 17  4  1  0
 18  9  1  0
 19 16  1  0
 19  6  1  0
 21 12  1  0
 21  5  2  0
 22 38  1  0
 23 35  1  0
 24 22  2  0
 25 34  1  0
 25 23  1  0
 26  8  1  0
 27 21  1  0
 30 34  1  0
 31  1  1  0
 31 35  1  0
 32 10  1  0
 32 18  2  0
 33  7  1  0
 34 20  1  0
 34 31  1  0
 36 27  2  0
 37 22  1  0
 37 33  1  0
 38 30  1  0
 38 13  1  0
M  END
$$$$

     RDKit          3D

 29 31  0  0  0  0  0  0  0  0999 V2000
   38.6550   31.0160   56.9190 C   0  0  0  0  0  0  0  0  0  0  0  0
   36.1050   33.5760   59.9010 O   0  0  0  0  0  0  0  0  0  0  0  0
   39.4830   34.9900   61.5370 C   0  0  0  0  0  0  0  0  0  0  0  0
   40.3690   28.6570   48.6980 C   0  0  0  0  0  0  0  0  0  0  0  0
   39.6740   31.0010   49.3200 C   0  0  0  0  0  0  0  0  0  0  0  0
   38.3550   33.2930   60.2360 N   0  0  0  0  0  0  0  0  0  0  0  0
   38.4600   31.9440   59.7320 C   0  0  0  0  0  0  0  0  0  0  0  0
   38.7510   27.8800   54.7110 C   0  0  0  0  0  0  0  0  0  0  0  0
   39.2580   29.7790   53.2600 C   0  0  0  0  0  0  0  0  0  0  0  0
   40.3410   29.7840   49.6920 N   0  0  0  0  0  0  0  0  0  0  0  0
   36.7940   37.4020   59.0630 O   0  0  0  0  0  0  0  0  0  0  0  0
   38.4890   35.8590   61.0220 N   0  0  0  0  0  0  0  0  0  0  0  0
   38.0940   25.4500   55.2880 C   0  0  0  0  0  0  0  0  0  0  0  0
   36.5180   36.1670   59.5200 C   0  0  0  0  0  0  0  0  0  0  0  0
   39.6560   30.3050   51.9480 C   0  0  0  0  0  0  0  0  0  0  0  0
   37.4230   35.4730   60.5650 C   0  0  0  0  0  0  0  0  0  0  0  0
   38.8630   30.7650   54.5280 C   0  0  0  0  0  0  0  0  0  0  0  0
   38.0450   31.8330   57.5340 N   0  0  0  0  0  0  0  0  0  0  0  0
   39.1940   28.3240   53.4380 C   0  0  0  0  0  0  0  0  0  0  0  0
   39.8860   29.3720   50.8970 C   0  0  0  0  0  0  0  0  0  0  0  0
   39.2060   26.3550   55.2100 C   0  0  0  0  0  0  0  0  0  0  0  0
   37.3250   34.0360   60.2270 C   0  0  0  0  0  0  0  0  0  0  0  0
   38.5620   28.7500   55.8150 C   0  0  0  0  0  0  0  0  0  0  0  0
   40.3460   26.2550   55.9110 C   0  0  0  0  0  0  0  0  0  0  0  0
   39.7440   27.9740   51.1560 C   0  0  0  0  0  0  0  0  0  0  0  0
   39.4410   27.4730   52.3820 C   0  0  0  0  0  0  0  0  0  0  0  0
   39.6540   33.7130   60.8180 C   0  0  0  0  0  0  0  0  0  0  0  0
   37.6700   31.2180   58.8820 C   0  0  0  0  0  0  0  0  0  0  0  0
   38.7120   30.1660   55.6140 C   0  0  0  0  0  0  0  0  0  0  0  0
  1 18  1  0
  2 22  2  0
  4 10  1  0
  5 10  1  0
  6 27  1  0
  7  6  1  0
  8 21  1  0
  8 23  1  0
  9 19  1  0
  9 17  2  0
 10 20  1  0
 11 14  1  0
 12  3  1  0
 15  9  1  0
 16 14  1  0
 16 12  1  0
 17 29  1  0
 18 28  1  0
 19  8  2  0
 20 25  1  0
 20 15  2  0
 21 13  1  0
 21 24  2  0
 22  6  1  0
 22 16  1  0
 25 26  2  0
 26 19  1  0
 27  3  1  0
 28  7  1  0
 29 23  2  0
 29  1  1  0
M  END
$$$$

     RDKit          3D

 33 35  0  0  0  0  0  0  0  0999 V2000
   38.8160   26.6820   54.2490 C   0  0  0  0  0  0  0  0  0  0  0  0
   37.7540   29.6480   55.7910 C   0  0  0  0  0  0  0  0  0  0  0  0
   38.6920   29.4580   53.5120 C   0  0  0  0  0  0  0  0  0  0  0  0
   36.6920   34.8320   60.5840 C   0  0  0  0  0  0  0  0  0  0  0  0
   38.0750   33.8700   60.1140 C   0  0  0  0  0  0  0  0  0  0  0  0
   39.1040   33.6010   60.4490 C   0  0  0  0  0  0  0  0  0  0  0  0
   37.7220   29.3820   59.5250 C   0  0  0  0  0  0  0  0  0  0  0  0
   39.1770   31.5510   49.0610 N   0  0  0  0  0  0  0  0  0  0  0  0
   38.1120   31.5480   57.6420 O   0  0  0  0  0  0  0  0  0  0  0  0
   38.1140   30.3320   57.0140 C   0  0  0  0  0  0  0  0  0  0  0  0
   37.5580   37.2850   60.1790 C   0  0  0  0  0  0  0  0  0  0  0  0
   40.2220   31.0430   49.6510 C   0  0  0  0  0  0  0  0  0  0  0  0
   37.6170   32.1930   59.5510 C   0  0  0  0  0  0  0  0  0  0  0  0
   37.7840   38.4610   59.6240 O   0  0  0  0  0  0  0  0  0  0  0  0
   38.7260   32.4290   58.2360 O   0  0  0  0  0  0  0  0  0  0  0  0
   39.3830   27.3150   53.3750 C   0  0  0  0  0  0  0  0  0  0  0  0
   36.7490   37.8070   61.1130 O   0  0  0  0  0  0  0  0  0  0  0  0
   39.8040   29.2200   51.2170 C   0  0  0  0  0  0  0  0  0  0  0  0
   37.8040   28.9990   58.0010 C   0  0  0  0  0  0  0  0  0  0  0  0
   41.4300   29.0770   48.6710 N   0  0  0  0  0  0  0  0  0  0  0  0
   36.5680   32.5000   60.5240 O   0  0  0  0  0  0  0  0  0  0  0  0
   38.0420   27.7940   57.0260 C   0  0  0  0  0  0  0  0  0  0  0  0
   40.7740   29.8940   49.2180 C   0  0  0  0  0  0  0  0  0  0  0  0
   37.6340   36.0990   60.8820 C   0  0  0  0  0  0  0  0  0  0  0  0
   39.2770   28.5120   52.5110 C   0  0  0  0  0  0  0  0  0  0  0  0
   36.6220   30.5140   55.3410 O   0  0  0  0  0  0  0  0  0  0  0  0
   38.1340   30.8060   60.1780 C   0  0  0  0  0  0  0  0  0  0  0  0
   38.5930   28.4570   60.2050 O   0  0  0  0  0  0  0  0  0  0  0  0
   40.0610   30.5520   51.1340 C   0  0  0  0  0  0  0  0  0  0  0  0
   38.3350   29.1440   54.8510 C   0  0  0  0  0  0  0  0  0  0  0  0
   38.3780   27.8760   55.2740 C   0  0  0  0  0  0  0  0  0  0  0  0
   37.4330   33.8990   59.4280 C   0  0  0  0  0  0  0  0  0  0  0  0
   40.0980   30.9950   52.1790 F   0  0  0  0  0  0  0  0  0  0  0  0
  1 31  1  0
  2 10  1  0
  3 30  1  0
  4 24  1  0
  5  6  2  0
  7 27  1  0
  7 28  1  0
  9 15  1  0
 10  9  1  0
 10 19  2  0
 11 24  1  0
 11 17  1  0
 12  8  1  0
 12 29  1  0
 13 27  1  0
 13 21  1  0
 14 11  2  0
 15 13  1  0
 16  1  1  0
 18 25  1  0
 19  7  1  0
 20 23  3  0
 22 19  1  0
 23 12  1  0
 25 16  1  0
 25  3  2  0
 26  2  1  0
 29 18  2  3
 29 33  1  0
 30 31  1  0
 30  2  2  0
 31 22  2  0
 32 13  1  0
 32  5  1  0
 32  4  1  0
M  END
$$$$

     RDKit          3D

 36 39  0  0  0  0  0  0  0  0999 V2000
   37.4500   30.0570   57.9790 C   0  0  0  0  0  0  0  0  0  0  0  0
   37.8990   34.6020   60.2830 C   0  0  0  0  0  0  0  0  0  0  0  0
   39.0330   28.3660   54.9250 N   0  0  0  0  0  0  0  0  0  0  0  0
   38.3570   28.4910   53.7540 C   0  0  0  0  0  0  0  0  0  0  0  0
   37.2860   36.9200   61.0180 C   0  0  0  0  0  0  0  0  0  0  0  0
   37.9850   32.5100   54.7780 O   0  0  0  0  0  0  0  0  0  0  0  0
   39.8180   29.7470   52.1860 C   0  0  0  0  0  0  0  0  0  0  0  0
   38.4050   32.2540   57.1560 C   0  0  0  0  0  0  0  0  0  0  0  0
   39.7520   24.8090   54.8860 C   0  0  0  0  0  0  0  0  0  0  0  0
   37.3450   32.1210   59.2880 C   0  0  0  0  0  0  0  0  0  0  0  0
   39.0260   28.5750   52.4960 C   0  0  0  0  0  0  0  0  0  0  0  0
   39.2270   25.5720   57.1040 C   0  0  0  0  0  0  0  0  0  0  0  0
   39.4920   36.1100   61.4190 C   0  0  0  0  0  0  0  0  0  0  0  0
   39.9790   33.7400   60.6520 O   0  0  0  0  0  0  0  0  0  0  0  0
   37.7650   29.3740   56.5970 C   0  0  0  0  0  0  0  0  0  0  0  0
   38.4540   31.8240   55.7110 C   0  0  0  0  0  0  0  0  0  0  0  0
   39.5180   30.7780   55.2280 C   0  0  0  0  0  0  0  0  0  0  0  0
   39.8710   29.2050   49.8820 C   0  0  0  0  0  0  0  0  0  0  0  0
   40.0640   29.4040   48.6140 O   0  0  0  0  0  0  0  0  0  0  0  0
   39.1850   34.8920   60.8360 C   0  0  0  0  0  0  0  0  0  0  0  0
   36.9560   35.6230   60.4080 C   0  0  0  0  0  0  0  0  0  0  0  0
   40.3690   30.6450   48.2700 N   0  0  0  0  0  0  0  0  0  0  0  0
   39.3280   24.5290   56.2210 C   0  0  0  0  0  0  0  0  0  0  0  0
   37.6830   33.4140   59.5650 N   0  0  0  0  0  0  0  0  0  0  0  0
   37.0930   28.3240   53.7300 O   0  0  0  0  0  0  0  0  0  0  0  0
   39.0440   29.4590   55.7130 C   0  0  0  0  0  0  0  0  0  0  0  0
   38.5510   37.1210   61.4920 C   0  0  0  0  0  0  0  0  0  0  0  0
   39.1870   28.0340   50.1360 C   0  0  0  0  0  0  0  0  0  0  0  0
   39.4050   27.2150   55.3760 C   0  0  0  0  0  0  0  0  0  0  0  0
   39.6460   26.1870   54.4230 C   0  0  0  0  0  0  0  0  0  0  0  0
   39.4220   26.8830   56.7380 C   0  0  0  0  0  0  0  0  0  0  0  0
   36.3780   37.7590   61.0350 O   0  0  0  0  0  0  0  0  0  0  0  0
   38.2280   31.3350   58.2720 C   0  0  0  0  0  0  0  0  0  0  0  0
   36.4180   31.5520   59.8160 O   0  0  0  0  0  0  0  0  0  0  0  0
   38.7880   27.7780   51.4470 C   0  0  0  0  0  0  0  0  0  0  0  0
   40.2810   30.0650   50.9180 C   0  0  0  0  0  0  0  0  0  0  0  0
  1 33  1  0
  2 21  1  0
  2 20  2  0
  3 29  1  0
  4  3  1  0
  5 32  2  0
  5 27  1  0
  6 16  2  0
  7 11  1  0
  8 33  1  0
  9 23  1  0
 10 24  1  0
 10 34  2  0
 11  4  1  0
 13 27  2  0
 14 20  1  0
 15  1  1  0
 16  8  1  0
 17 16  1  0
 17 26  1  0
 18 28  2  0
 18 36  1  0
 19 18  1  0
 20 13  1  0
 21  5  1  0
 22 19  1  0
 23 12  2  0
 24  2  1  0
 25  4  2  0
 26  3  1  0
 26 15  1  0
 28 35  1  0
 29 31  2  0
 30  9  2  0
 30 29  1  0
 31 12  1  0
 33 10  1  0
 35 11  2  0
 36  7  2  0
M  END
$$$$

     RDKit          3D

 24 26  0  0  0  0  0  0  0  0999 V2000
   38.2750   32.9300   57.4820 C   0  0  0  0  0  0  0  0  0  0  0  0
   37.4560   29.4880   57.3240 C   0  0  0  0  0  0  0  0  0  0  0  0
   39.0900   30.0120   53.9620 C   0  0  0  0  0  0  0  0  0  0  0  0
   38.4830   30.4580   55.1200 C   0  0  0  0  0  0  0  0  0  0  0  0
   39.1020   27.9660   52.9610 C   0  0  0  0  0  0  0  0  0  0  0  0
   38.7090   35.0670   60.7170 C   0  0  0  0  0  0  0  0  0  0  0  0
   37.6170   37.3330   60.7170 C   0  0  0  0  0  0  0  0  0  0  0  0
   38.5420   28.0550   55.1920 N   0  0  0  0  0  0  0  0  0  0  0  0
   39.8170   28.0330   49.8500 F   0  0  0  0  0  0  0  0  0  0  0  0
   36.2980   35.6920   59.9440 C   0  0  0  0  0  0  0  0  0  0  0  0
   38.7860   31.5750   57.1760 C   0  0  0  0  0  0  0  0  0  0  0  0
   36.6300   33.7280   59.2420 C   0  0  0  0  0  0  0  0  0  0  0  0
   37.8810   33.5750   56.3690 O   0  0  0  0  0  0  0  0  0  0  0  0
   39.7200   29.7040   51.6210 C   0  0  0  0  0  0  0  0  0  0  0  0
   39.5500   30.4320   52.8380 C   0  0  0  0  0  0  0  0  0  0  0  0
   37.5120   35.7900   60.2070 C   0  0  0  0  0  0  0  0  0  0  0  0
   39.0340   33.8500   59.7210 C   0  0  0  0  0  0  0  0  0  0  0  0
   35.6930   34.3870   59.5390 N   0  0  0  0  0  0  0  0  0  0  0  0
   38.2070   29.2790   55.9420 C   0  0  0  0  0  0  0  0  0  0  0  0
   39.1490   31.5800   55.7940 C   0  0  0  0  0  0  0  0  0  0  0  0
   39.0150   28.5020   53.9420 C   0  0  0  0  0  0  0  0  0  0  0  0
   39.4160   28.2630   51.5570 C   0  0  0  0  0  0  0  0  0  0  0  0
   39.3170   27.3920   50.7220 O   0  0  0  0  0  0  0  0  0  0  0  0
   38.0100   33.5270   58.7650 C   0  0  0  0  0  0  0  0  0  0  0  0
  1 13  1  0
  3  4  1  0
  4 20  1  0
  4 19  1  0
  5 21  2  0
  8 19  2  0
  9 23  1  0
 10 16  1  0
 11  1  1  0
 12 18  1  0
 14 15  1  0
 15  3  2  0
 16  7  1  0
 16  6  1  0
 17  6  1  0
 18 10  1  0
 19  2  1  0
 20 11  1  0
 21  3  1  0
 21  8  1  0
 22 14  2  0
 22  5  1  0
 23 22  1  0
 24  1  1  0
 24 12  1  0
 24 17  1  0
M  END
$$$$

     RDKit          3D

 19 20  0  0  0  0  0  0  0  0999 V2000
   38.1290   33.1510   59.9940 C   0  0  0  0  0  0  0  0  0  0  0  0
   38.6130   30.9840   55.2860 C   0  0  0  0  0  0  0  0  0  0  0  0
   37.4060   36.7880   60.0370 C   0  0  0  0  0  0  0  0  0  0  0  0
   36.6350   37.0860   59.2050 O   0  0  0  0  0  0  0  0  0  0  0  0
   39.3460   28.4180   52.5310 S   0  0  0  0  0  0  0  0  0  0  0  0
   39.7770   27.8420   49.9640 O   0  0  0  0  0  0  0  0  0  0  0  0
   39.8400   30.1350   50.7980 C   0  0  0  0  0  0  0  0  0  0  0  0
   39.7140   30.3660   54.6270 C   0  0  0  0  0  0  0  0  0  0  0  0
   38.8550   29.9340   57.9330 C   0  0  0  0  0  0  0  0  0  0  0  0
   38.3260   30.3620   59.3210 C   0  0  0  0  0  0  0  0  0  0  0  0
   39.7240   28.7230   50.8080 C   0  0  0  0  0  0  0  0  0  0  0  0
   39.7970   30.7620   51.9920 C   0  0  0  0  0  0  0  0  0  0  0  0
   38.3590   30.6430   56.7670 C   0  0  0  0  0  0  0  0  0  0  0  0
   39.5670   30.0350   53.1430 C   0  0  0  0  0  0  0  0  0  0  0  0
   39.0810   33.6370   60.9540 C   0  0  0  0  0  0  0  0  0  0  0  0
   38.8770   35.0430   61.0990 C   0  0  0  0  0  0  0  0  0  0  0  0
   37.8010   35.3990   60.2570 C   0  0  0  0  0  0  0  0  0  0  0  0
   37.9900   31.8230   59.3520 C   0  0  0  0  0  0  0  0  0  0  0  0
   37.2560   34.2320   59.6880 C   0  0  0  0  0  0  0  0  0  0  0  0
  1 15  1  0
  2 13  2  3
  3 17  1  0
  4  3  2  0
  5 14  1  0
  6 11  2  0
  7 11  1  0
  7 12  2  0
  8  2  1  0
  9 10  1  0
 10 18  1  0
 11  5  1  0
 12 14  1  0
 13  9  1  0
 14  8  1  0
 15 16  1  0
 17 16  2  0
 18  1  1  0
 19  1  2  0
 19 17  1  0
M  END
$$$$

     RDKit          3D

 38 42  0  0  0  0  0  0  0  0999 V2000
   38.5450   27.3100   49.7480 F   0  0  0  0  0  0  0  0  0  0  0  0
   39.1250   27.8580   56.6470 C   0  0  0  0  0  0  0  0  0  0  0  0
   39.4830   27.3340   52.4010 C   0  0  0  0  0  0  0  0  0  0  0  0
   37.5130   32.4990   58.6950 C   0  0  0  0  0  0  0  0  0  0  0  0
   38.8070   36.2760   61.3670 C   0  0  0  0  0  0  0  0  0  0  0  0
   37.9410   33.5350   57.4150 C   0  0  0  0  0  0  0  0  0  0  0  0
   39.9730   29.0150   49.4180 C   0  0  0  0  0  0  0  0  0  0  0  0
   38.6400   28.2160   55.2010 N   0  0  0  0  0  0  0  0  0  0  0  0
   36.7810   34.6220   59.9820 C   0  0  0  0  0  0  0  0  0  0  0  0
   41.1480   35.1790   63.1640 C   0  0  0  0  0  0  0  0  0  0  0  0
   38.3670   30.8520   54.6230 C   0  0  0  0  0  0  0  0  0  0  0  0
   40.4550   34.2040   62.2000 C   0  0  0  0  0  0  0  0  0  0  0  0
   39.3280   28.2880   50.2950 C   0  0  0  0  0  0  0  0  0  0  0  0
   37.4430   30.2120   55.7210 C   0  0  0  0  0  0  0  0  0  0  0  0
   39.4780   25.6180   56.3990 C   0  0  0  0  0  0  0  0  0  0  0  0
   35.4100   33.5370   61.7190 C   0  0  0  0  0  0  0  0  0  0  0  0
   37.8600   33.7130   59.7210 C   0  0  0  0  0  0  0  0  0  0  0  0
   37.3750   30.3120   57.2100 C   0  0  0  0  0  0  0  0  0  0  0  0
   40.1550   29.8170   51.6850 C   0  0  0  0  0  0  0  0  0  0  0  0
   39.1410   25.7980   54.9490 N   0  0  0  0  0  0  0  0  0  0  0  0
   39.4340   28.6090   51.5500 N   0  0  0  0  0  0  0  0  0  0  0  0
   40.0120   28.7700   48.1470 F   0  0  0  0  0  0  0  0  0  0  0  0
   40.0850   32.2960   61.1550 S   0  0  0  0  0  0  0  0  0  0  0  0
   38.5280   27.0120   54.6220 C   0  0  0  0  0  0  0  0  0  0  0  0
   40.1760   26.9020   56.7180 C   0  0  0  0  0  0  0  0  0  0  0  0
   34.4230   34.6490   59.4370 C   0  0  0  0  0  0  0  0  0  0  0  0
   36.7370   29.3760   57.8200 O   0  0  0  0  0  0  0  0  0  0  0  0
   39.2810   33.6040   60.3240 C   0  0  0  0  0  0  0  0  0  0  0  0
   38.2420   31.2300   58.1570 C   0  0  0  0  0  0  0  0  0  0  0  0
   40.9490   36.4480   62.7060 C   0  0  0  0  0  0  0  0  0  0  0  0
   39.6850   37.0430   62.4330 C   0  0  0  0  0  0  0  0  0  0  0  0
   38.2150   27.1480   53.1000 C   0  0  0  0  0  0  0  0  0  0  0  0
   36.7860   35.9680   59.3310 O   0  0  0  0  0  0  0  0  0  0  0  0
   39.3800   34.7070   61.3730 C   0  0  0  0  0  0  0  0  0  0  0  0
   37.8660   29.4150   54.5480 C   0  0  0  0  0  0  0  0  0  0  0  0
   35.4630   34.2970   60.4960 C   0  0  0  0  0  0  0  0  0  0  0  0
   36.2360   31.9290   59.2410 O   0  0  0  0  0  0  0  0  0  0  0  0
   40.7690   30.2990   50.2400 S   0  0  0  0  0  0  0  0  0  0  0  0
  1 13  1  0
  2 25  1  0
  3 32  1  0
  4  6  1  0
  4 37  1  0
  4 17  1  0
  5 31  1  0
  7 38  1  0
  7 13  2  0
  8  2  1  0
  9 33  1  0
  9 36  1  0
 11 14  1  0
 12 10  1  0
 13 21  1  0
 14 18  1  0
 15 25  1  0
 17  9  1  0
 18 27  1  0
 18 29  1  0
 20 15  1  0
 21 19  1  0
 21  3  1  0
 22  7  1  0
 23 12  1  0
 24 32  1  0
 24 20  1  0
 24  8  1  0
 26 36  1  0
 28 17  1  0
 28 23  1  0
 28 34  1  0
 29  4  1  0
 30 10  1  0
 31 30  1  0
 34  5  1  0
 34 12  1  0
 35 11  1  0
 35  8  1  0
 35 14  1  0
 36 16  1  0
 38 19  1  0
M  END
$$$$

     RDKit          3D

 33 36  0  0  0  0  0  0  0  0999 V2000
   37.8050   30.2780   59.8730 C   0  0  0  0  0  0  0  0  0  0  0  0
   39.0550   34.6360   61.0710 C   0  0  0  0  0  0  0  0  0  0  0  0
   35.6630   31.3910   59.9520 O   0  0  0  0  0  0  0  0  0  0  0  0
   39.5290   28.2860   49.8120 C   0  0  0  0  0  0  0  0  0  0  0  0
   40.0990   29.4490   49.4590 C   0  0  0  0  0  0  0  0  0  0  0  0
   37.2520   33.1870   58.9210 N   0  0  0  0  0  0  0  0  0  0  0  0
   39.9850   30.2270   51.8270 C   0  0  0  0  0  0  0  0  0  0  0  0
   37.6110   32.8290   60.3630 C   0  0  0  0  0  0  0  0  0  0  0  0
   37.3340   37.3360   59.4160 O   0  0  0  0  0  0  0  0  0  0  0  0
   40.5050   36.3380   61.9940 O   0  0  0  0  0  0  0  0  0  0  0  0
   38.7690   27.0810   55.4670 C   0  0  0  0  0  0  0  0  0  0  0  0
   40.2430   35.2190   61.7810 C   0  0  0  0  0  0  0  0  0  0  0  0
   41.1720   33.9600   62.2960 C   0  0  0  0  0  0  0  0  0  0  0  0
   40.1350   26.6370   55.7280 C   0  0  0  0  0  0  0  0  0  0  0  0
   37.6100   28.7880   53.7350 C   0  0  0  0  0  0  0  0  0  0  0  0
   38.6100   33.2460   55.7450 C   0  0  0  0  0  0  0  0  0  0  0  0
   37.6230   33.6140   56.7320 N   0  0  0  0  0  0  0  0  0  0  0  0
   39.0240   25.6710   55.4610 C   0  0  0  0  0  0  0  0  0  0  0  0
   38.4630   30.8900   54.8890 C   0  0  0  0  0  0  0  0  0  0  0  0
   40.3350   30.5030   50.4350 C   0  0  0  0  0  0  0  0  0  0  0  0
   37.2510   29.9210   54.8760 C   0  0  0  0  0  0  0  0  0  0  0  0
   38.5470   27.6460   54.1490 N   0  0  0  0  0  0  0  0  0  0  0  0
   39.1660   28.0470   51.1200 C   0  0  0  0  0  0  0  0  0  0  0  0
   38.3210   33.3660   57.9060 C   0  0  0  0  0  0  0  0  0  0  0  0
   39.4100   29.0250   52.2220 C   0  0  0  0  0  0  0  0  0  0  0  0
   38.9660   31.9330   55.8480 C   0  0  0  0  0  0  0  0  0  0  0  0
   37.1530   36.2050   60.4920 C   0  0  0  0  0  0  0  0  0  0  0  0
   37.0170   31.4880   60.4300 C   0  0  0  0  0  0  0  0  0  0  0  0
   39.0830   28.7660   53.6410 C   0  0  0  0  0  0  0  0  0  0  0  0
   38.4540   26.9680   51.3960 O   0  0  0  0  0  0  0  0  0  0  0  0
   39.9590   29.8620   54.8130 S   0  0  0  0  0  0  0  0  0  0  0  0
   38.5010   33.2930   61.1770 O   0  0  0  0  0  0  0  0  0  0  0  0
   38.4360   35.3990   60.2920 O   0  0  0  0  0  0  0  0  0  0  0  0
  2 33  1  0
  2 32  1  0
  2 12  1  0
  3 28  1  0
  4 23  1  0
  5  4  2  0
  5 20  1  0
  7 25  1  0
  8  6  1  0
  8 28  1  0
  8 32  1  0
  9 27  1  0
 11 14  1  0
 12 10  2  0
 12 13  1  0
 15 22  1  0
 15 21  1  0
 16 26  1  0
 16 17  1  0
 17 24  1  0
 18 11  1  0
 18 14  1  0
 19 26  1  0
 20  7  2  0
 21 19  1  0
 22 11  1  0
 23 30  1  0
 23 25  2  0
 24  6  1  0
 28  1  1  0
 29 25  1  0
 29 15  1  0
 29 22  1  0
 29 31  1  0
 31 19  1  0
 33 27  1  0
M  END
$$$$

     RDKit          3D

 11 11  0  0  0  0  0  0  0  0999 V2000
   36.9800   30.4200   55.6090 O   0  0  0  0  0  0  0  0  0  0  0  0
   38.6210   32.1190   56.3070 C   0  0  0  0  0  0  0  0  0  0  0  0
   37.8770   33.5680   58.4500 C   0  0  0  0  0  0  0  0  0  0  0  0
   38.0410   33.0840   55.4310 O   0  0  0  0  0  0  0  0  0  0  0  0
   37.9600   35.1330   60.5380 C   0  0  0  0  0  0  0  0  0  0  0  0
   38.5280   29.8810   56.7930 O   0  0  0  0  0  0  0  0  0  0  0  0
   38.4720   33.9040   59.8940 C   0  0  0  0  0  0  0  0  0  0  0  0
   38.6820   32.6450   57.7660 C   0  0  0  0  0  0  0  0  0  0  0  0
   38.0150   30.7090   56.2110 C   0  0  0  0  0  0  0  0  0  0  0  0
   37.3350   36.7960   60.1380 S   0  0  0  0  0  0  0  0  0  0  0  0
   39.4010   34.7560   60.6940 C   0  0  0  0  0  0  0  0  0  0  0  0
  1  9  2  0
  2  4  1  0
  2  8  1  0
  5 10  1  0
  5 11  1  0
  7  3  1  0
  7  5  1  0
  7 11  1  0
  8  3  1  0
  9  2  1  0
  9  6  1  0
M  END
$$$$

     RDKit          3D

 37 40  0  0  0  0  0  0  0  0999 V2000
   38.9040   30.6860   56.6560 C   0  0  0  0  0  0  0  0  0  0  0  0
   38.1240   31.3190   61.6060 O   0  0  0  0  0  0  0  0  0  0  0  0
   39.9140   30.1710   48.4130 O   0  0  0  0  0  0  0  0  0  0  0  0
   40.3930   28.5670   50.4700 C   0  0  0  0  0  0  0  0  0  0  0  0
   39.3680   24.9410   57.0070 C   0  0  0  0  0  0  0  0  0  0  0  0
   37.3950   35.7580   59.6270 C   0  0  0  0  0  0  0  0  0  0  0  0
   39.3880   28.0960   56.0450 O   0  0  0  0  0  0  0  0  0  0  0  0
   38.1140   37.2960   61.4770 C   0  0  0  0  0  0  0  0  0  0  0  0
   38.4290   28.4510   53.5270 C   0  0  0  0  0  0  0  0  0  0  0  0
   38.7370   33.7390   57.6750 C   0  0  0  0  0  0  0  0  0  0  0  0
   40.3350   30.0180   50.7090 C   0  0  0  0  0  0  0  0  0  0  0  0
   39.4020   34.5970   60.6590 C   0  0  0  0  0  0  0  0  0  0  0  0
   37.6590   30.8760   54.5260 C   0  0  0  0  0  0  0  0  0  0  0  0
   39.3740   36.7990   61.8980 C   0  0  0  0  0  0  0  0  0  0  0  0
   40.0410   37.5660   62.7040 O   0  0  0  0  0  0  0  0  0  0  0  0
   39.8980   35.5870   61.5850 C   0  0  0  0  0  0  0  0  0  0  0  0
   37.4010   26.4160   55.9750 C   0  0  0  0  0  0  0  0  0  0  0  0
   37.8150   30.9230   60.4680 C   0  0  0  0  0  0  0  0  0  0  0  0
   38.0000   29.5730   60.3790 O   0  0  0  0  0  0  0  0  0  0  0  0
   37.7180   31.7620   59.1740 C   0  0  0  0  0  0  0  0  0  0  0  0
   36.1190   37.7450   60.5650 O   0  0  0  0  0  0  0  0  0  0  0  0
   37.4710   29.3980   54.2660 C   0  0  0  0  0  0  0  0  0  0  0  0
   38.3920   34.6260   59.8170 C   0  0  0  0  0  0  0  0  0  0  0  0
   37.2580   36.7540   60.5620 C   0  0  0  0  0  0  0  0  0  0  0  0
   38.5690   27.1890   53.9060 C   0  0  0  0  0  0  0  0  0  0  0  0
   39.6570   29.4770   55.6100 C   0  0  0  0  0  0  0  0  0  0  0  0
   37.9220   33.1980   56.3070 N   0  0  0  0  0  0  0  0  0  0  0  0
   39.7690   30.2270   52.0760 C   0  0  0  0  0  0  0  0  0  0  0  0
   39.3310   28.0230   51.3330 C   0  0  0  0  0  0  0  0  0  0  0  0
   39.7920   30.9030   49.6440 C   0  0  0  0  0  0  0  0  0  0  0  0
   39.7510   26.0100   58.0900 C   0  0  0  0  0  0  0  0  0  0  0  0
   39.1140   28.9420   52.3800 N   0  0  0  0  0  0  0  0  0  0  0  0
   38.7420   26.7660   55.3990 C   0  0  0  0  0  0  0  0  0  0  0  0
   38.1230   30.8440   58.0100 C   0  0  0  0  0  0  0  0  0  0  0  0
   39.6570   25.6440   55.7170 C   0  0  0  0  0  0  0  0  0  0  0  0
   38.0040   33.3540   58.9730 C   0  0  0  0  0  0  0  0  0  0  0  0
   38.6540   31.8920   55.4760 C   0  0  0  0  0  0  0  0  0  0  0  0
  1 26  1  0
  1 34  1  0
  3 30  1  0
  4 11  1  0
  4 29  1  0
  5 31  1  0
  6 23  2  0
  6 24  1  0
  8 14  2  0
  9 25  1  0
  9 22  1  0
 10 36  1  0
 11 30  1  0
 11 28  1  0
 12 16  2  0
 14 15  1  0
 16 14  1  0
 18  2  1  0
 19 18  2  0
 20 18  1  0
 22 13  1  0
 23 12  1  0
 24 21  1  0
 24  8  1  0
 25 33  1  0
 26  7  1  0
 27 10  1  0
 28 32  1  0
 32 29  1  0
 32  9  1  0
 33 35  1  0
 33 17  1  0
 33  7  1  0
 34 20  1  0
 35  5  1  0
 36 20  1  0
 36 23  1  0
 37 13  1  0
 37 27  1  0
 37  1  1  0
M  END
$$$$

     RDKit          3D

 33 36  0  0  0  0  0  0  0  0999 V2000
   40.0290   29.4220   57.7120 O   0  0  0  0  0  0  0  0  0  0  0  0
   36.7730   34.5840   60.1960 O   0  0  0  0  0  0  0  0  0  0  0  0
   38.4500   33.2510   58.5720 C   0  0  0  0  0  0  0  0  0  0  0  0
   39.1530   29.4080   54.4790 C   0  0  0  0  0  0  0  0  0  0  0  0
   38.9370   29.3310   57.0140 C   0  0  0  0  0  0  0  0  0  0  0  0
   37.8100   30.1500   57.3970 N   0  0  0  0  0  0  0  0  0  0  0  0
   39.6620   30.6940   53.9230 C   0  0  0  0  0  0  0  0  0  0  0  0
   37.1190   33.3360   60.7910 C   0  0  0  0  0  0  0  0  0  0  0  0
   38.2820   33.0850   57.4550 O   0  0  0  0  0  0  0  0  0  0  0  0
   37.2210   29.9490   58.7050 C   0  0  0  0  0  0  0  0  0  0  0  0
   37.5110   30.7790   60.9700 O   0  0  0  0  0  0  0  0  0  0  0  0
   40.2530   30.4580   50.2020 C   0  0  0  0  0  0  0  0  0  0  0  0
   38.5900   28.6370   53.5060 C   0  0  0  0  0  0  0  0  0  0  0  0
   39.5780   38.8030   62.2110 F   0  0  0  0  0  0  0  0  0  0  0  0
   37.8400   27.4880   55.4720 C   0  0  0  0  0  0  0  0  0  0  0  0
   39.8930   31.0060   52.6410 C   0  0  0  0  0  0  0  0  0  0  0  0
   36.3820   36.9290   59.1850 F   0  0  0  0  0  0  0  0  0  0  0  0
   37.7580   32.6020   59.7220 C   0  0  0  0  0  0  0  0  0  0  0  0
   39.0210   27.7630   51.0860 C   0  0  0  0  0  0  0  0  0  0  0  0
   37.4260   31.1280   59.6860 C   0  0  0  0  0  0  0  0  0  0  0  0
   39.1810   36.6690   62.0990 C   0  0  0  0  0  0  0  0  0  0  0  0
   38.7850   28.5320   55.8540 C   0  0  0  0  0  0  0  0  0  0  0  0
   37.8240   38.0290   60.7310 C   0  0  0  0  0  0  0  0  0  0  0  0
   37.1630   36.8310   60.1880 C   0  0  0  0  0  0  0  0  0  0  0  0
   39.6730   30.1140   51.6590 C   0  0  0  0  0  0  0  0  0  0  0  0
   37.4900   35.5560   60.7620 C   0  0  0  0  0  0  0  0  0  0  0  0
   38.8400   37.8660   61.6640 C   0  0  0  0  0  0  0  0  0  0  0  0
   40.1580   29.2440   49.2330 C   0  0  0  0  0  0  0  0  0  0  0  0
   39.0540   28.8520   52.0900 C   0  0  0  0  0  0  0  0  0  0  0  0
   38.5360   35.4670   61.6630 C   0  0  0  0  0  0  0  0  0  0  0  0
   38.5410   26.6070   51.3890 O   0  0  0  0  0  0  0  0  0  0  0  0
   39.5990   27.9750   49.7780 C   0  0  0  0  0  0  0  0  0  0  0  0
   37.7790   27.4110   53.9780 C   0  0  0  0  0  0  0  0  0  0  0  0
  2 26  1  0
  2  8  1  0
  4 22  1  0
  5  6  1  0
  5  1  2  0
  6 10  1  0
  7  4  1  0
  9  3  2  0
 10 20  1  0
 12 25  1  0
 13 33  1  0
 13  4  2  0
 15 22  1  0
 16  7  2  0
 17 24  1  0
 18  3  1  0
 18  8  1  0
 19 31  1  0
 19 29  1  0
 20 18  1  0
 20 11  1  0
 22  5  1  0
 23 27  2  0
 24 23  1  0
 24 26  2  0
 25 29  2  0
 25 16  1  0
 26 30  1  0
 27 21  1  0
 27 14  1  0
 28 32  1  0
 28 12  2  0
 29 13  1  0
 30 21  2  0
 32 19  2  0
 33 15  2  0
M  END
$$$$

     RDKit          3D

  9  8  0  0  0  0  0  0  0  0999 V2000
   40.1490   28.2880   51.5750 O   0  0  0  0  0  0  0  0  0  0  0  0
   38.4020   30.6740   54.7340 C   0  0  0  0  0  0  0  0  0  0  0  0
   38.0370   27.7850   51.5700 O   0  0  0  0  0  0  0  0  0  0  0  0
   39.0730   28.1840   52.1690 C   0  0  0  0  0  0  0  0  0  0  0  0
   39.1420   31.3450   55.8200 C   0  0  0  0  0  0  0  0  0  0  0  0
   38.9350   28.5760   53.5560 C   0  0  0  0  0  0  0  0  0  0  0  0
   39.4190   29.9940   53.7960 C   0  0  0  0  0  0  0  0  0  0  0  0
   38.5400   33.1010   55.8930 S   0  0  0  0  0  0  0  0  0  0  0  0
   38.4400   32.9160   57.7070 C   0  0  0  0  0  0  0  0  0  0  0  0
  1  4  1  0
  2  5  1  0
  3  4  2  0
  4  6  1  0
  5  8  1  0
  6  7  1  0
  7  2  1  0
  8  9  1  0
M  END
$$$$

     RDKit          3D

 12 12  0  0  0  0  0  0  0  0999 V2000
   38.9110   27.3310   51.6640 C   0  0  0  0  0  0  0  0  0  0  0  0
   39.1430   29.2020   53.2460 C   0  0  0  0  0  0  0  0  0  0  0  0
   38.6380   31.7460   56.1300 C   0  0  0  0  0  0  0  0  0  0  0  0
   38.6300   30.9300   57.2540 N   0  0  0  0  0  0  0  0  0  0  0  0
   38.8760   29.7660   54.5110 O   0  0  0  0  0  0  0  0  0  0  0  0
   39.3890   31.0590   54.8780 C   0  0  0  0  0  0  0  0  0  0  0  0
   38.0930   27.0090   54.0400 C   0  0  0  0  0  0  0  0  0  0  0  0
   38.1280   32.8430   55.9630 O   0  0  0  0  0  0  0  0  0  0  0  0
   40.0170   29.3780   50.9910 C   0  0  0  0  0  0  0  0  0  0  0  0
   38.7080   27.8570   52.9660 C   0  0  0  0  0  0  0  0  0  0  0  0
   39.8000   29.9110   52.2300 C   0  0  0  0  0  0  0  0  0  0  0  0
   39.5790   28.1450   50.6630 C   0  0  0  0  0  0  0  0  0  0  0  0
  1 10  1  0
  2  5  1  0
  3  4  1  0
  5  6  1  0
  6  3  1  0
  8  3  2  0
  9 11  2  0
 10  2  2  0
 10  7  1  0
 11  2  1  0
 12  9  1  0
 12  1  2  0
M  END
$$$$

     RDKit          3D

 25 26  0  0  0  0  0  0  0  0999 V2000
   38.1760   36.9730   60.7410 O   0  0  0  0  0  0  0  0  0  0  0  0
   38.2300   29.7510   55.4740 S   0  0  0  0  0  0  0  0  0  0  0  0
   38.0380   28.5140   57.8660 C   0  0  0  0  0  0  0  0  0  0  0  0
   37.3420   35.3700   59.4330 C   0  0  0  0  0  0  0  0  0  0  0  0
   39.7600   30.5260   52.2050 C   0  0  0  0  0  0  0  0  0  0  0  0
   39.7300   28.2570   50.6190 C   0  0  0  0  0  0  0  0  0  0  0  0
   37.2820   33.8460   61.3350 O   0  0  0  0  0  0  0  0  0  0  0  0
   39.2360   28.2010   52.0030 C   0  0  0  0  0  0  0  0  0  0  0  0
   38.9700   28.8600   54.2240 C   0  0  0  0  0  0  0  0  0  0  0  0
   40.1300   30.6020   50.8560 C   0  0  0  0  0  0  0  0  0  0  0  0
   38.8450   33.2980   59.4790 C   0  0  0  0  0  0  0  0  0  0  0  0
   38.2550   27.6400   54.0070 C   0  0  0  0  0  0  0  0  0  0  0  0
   38.8460   31.2870   56.1540 C   0  0  0  0  0  0  0  0  0  0  0  0
   39.8340   27.1410   49.9700 F   0  0  0  0  0  0  0  0  0  0  0  0
   38.3230   32.8260   58.0830 C   0  0  0  0  0  0  0  0  0  0  0  0
   36.4580   37.3060   59.2860 O   0  0  0  0  0  0  0  0  0  0  0  0
   36.7650   30.1720   54.8590 C   0  0  0  0  0  0  0  0  0  0  0  0
   37.2780   36.6980   59.8590 C   0  0  0  0  0  0  0  0  0  0  0  0
   37.8380   33.7200   57.1690 O   0  0  0  0  0  0  0  0  0  0  0  0
   37.9840   28.4740   56.4180 O   0  0  0  0  0  0  0  0  0  0  0  0
   40.1360   29.4740   50.0720 C   0  0  0  0  0  0  0  0  0  0  0  0
   39.3280   29.3370   52.8260 C   0  0  0  0  0  0  0  0  0  0  0  0
   38.4650   31.3970   57.6220 C   0  0  0  0  0  0  0  0  0  0  0  0
   38.6250   27.1200   52.7450 C   0  0  0  0  0  0  0  0  0  0  0  0
   38.1350   34.3930   60.3210 C   0  0  0  0  0  0  0  0  0  0  0  0
  2 17  1  0
  2 13  1  0
  2 20  1  0
  4 18  1  0
  4 25  1  0
  5 22  1  0
  6  8  1  0
  8 24  1  0
  8 22  2  0
  9  2  1  0
 10  5  2  0
 11 25  1  0
 12  9  1  0
 13 23  1  0
 14  6  1  0
 15 19  1  0
 15 11  1  0
 16 18  2  0
 18  1  1  0
 20  3  1  0
 21  6  2  0
 21 10  1  0
 22  9  1  0
 23 15  1  0
 24 12  1  0
 25  7  1  0
M  END
$$$$

     RDKit          3D

 12 12  0  0  0  0  0  0  0  0999 V2000
   38.7850   33.1300   59.9880 C   0  0  0  0  0  0  0  0  0  0  0  0
   39.5860   34.1290   60.0490 O   0  0  0  0  0  0  0  0  0  0  0  0
   37.8630   33.1820   58.9710 C   0  0  0  0  0  0  0  0  0  0  0  0
   38.5850   32.0760   60.8550 C   0  0  0  0  0  0  0  0  0  0  0  0
   36.1730   31.8680   61.6110 O   0  0  0  0  0  0  0  0  0  0  0  0
   37.9430   33.5490   56.6030 N   0  0  0  0  0  0  0  0  0  0  0  0
   38.4590   32.6940   57.6790 C   0  0  0  0  0  0  0  0  0  0  0  0
   38.6100   30.8370   61.3380 C   0  0  0  0  0  0  0  0  0  0  0  0
   36.6530   34.2060   58.9780 O   0  0  0  0  0  0  0  0  0  0  0  0
   37.0500   32.5410   61.1530 C   0  0  0  0  0  0  0  0  0  0  0  0
   39.9900   32.1010   60.8740 O   0  0  0  0  0  0  0  0  0  0  0  0
   37.1530   33.9580   61.4810 O   0  0  0  0  0  0  0  0  0  0  0  0
  1  2  1  0
  1  4  1  0
  1 11  1  0
  3  9  1  0
  3  1  1  0
  4 11  1  0
  4 10  1  0
  4  8  1  0
  6  7  1  0
  7  3  1  0
 10 12  2  0
 10  5  1  0
M  END
$$$$

     RDKit          3D

 36 38  0  0  0  0  0  0  0  0999 V2000
   39.5730   28.6610   60.2170 C   0  0  0  0  0  0  0  0  0  0  0  0
   39.3430   28.4260   50.5980 C   0  0  0  0  0  0  0  0  0  0  0  0
   38.6090   32.2120   56.4890 C   0  0  0  0  0  0  0  0  0  0  0  0
   38.6610   33.2220   60.2720 C   0  0  0  0  0  0  0  0  0  0  0  0
   38.2260   34.5960   60.4390 C   0  0  0  0  0  0  0  0  0  0  0  0
   40.1710   28.1570   48.4290 F   0  0  0  0  0  0  0  0  0  0  0  0
   36.7810   36.5530   59.9320 C   0  0  0  0  0  0  0  0  0  0  0  0
   37.9780   31.7580   60.2750 C   0  0  0  0  0  0  0  0  0  0  0  0
   38.4700   31.3730   62.6870 O   0  0  0  0  0  0  0  0  0  0  0  0
   37.7600   31.1150   56.1800 N   0  0  0  0  0  0  0  0  0  0  0  0
   40.1390   25.7310   54.6730 C   0  0  0  0  0  0  0  0  0  0  0  0
   39.5110   25.3960   55.9950 C   0  0  0  0  0  0  0  0  0  0  0  0
   39.0020   35.4100   61.2680 C   0  0  0  0  0  0  0  0  0  0  0  0
   36.4260   31.9950   60.5780 C   0  0  0  0  0  0  0  0  0  0  0  0
   40.9050   30.0250   49.5580 C   0  0  0  0  0  0  0  0  0  0  0  0
   37.5260   37.3330   60.8370 C   0  0  0  0  0  0  0  0  0  0  0  0
   39.2770   29.5730   61.3530 C   0  0  0  0  0  0  0  0  0  0  0  0
   38.0490   26.9460   54.3950 C   0  0  0  0  0  0  0  0  0  0  0  0
   37.8600   29.9070   56.9110 C   0  0  0  0  0  0  0  0  0  0  0  0
   38.9080   29.9080   54.1480 C   0  0  0  0  0  0  0  0  0  0  0  0
   38.8980   30.9140   61.2130 C   0  0  0  0  0  0  0  0  0  0  0  0
   39.2060   28.9240   58.9220 C   0  0  0  0  0  0  0  0  0  0  0  0
   40.1050   30.3650   51.7660 C   0  0  0  0  0  0  0  0  0  0  0  0
   38.6860   36.7680   61.4330 C   0  0  0  0  0  0  0  0  0  0  0  0
   40.1500   28.8550   49.5460 C   0  0  0  0  0  0  0  0  0  0  0  0
   38.1510   31.1820   58.9800 C   0  0  0  0  0  0  0  0  0  0  0  0
   39.6350   37.5140   62.3230 C   0  0  0  0  0  0  0  0  0  0  0  0
   39.2460   29.2160   51.6540 C   0  0  0  0  0  0  0  0  0  0  0  0
   38.4620   28.9090   53.0110 C   0  0  0  0  0  0  0  0  0  0  0  0
   38.5090   29.9830   58.4650 C   0  0  0  0  0  0  0  0  0  0  0  0
   37.8910   30.9180   54.7020 C   0  0  0  0  0  0  0  0  0  0  0  0
   40.8860   30.7560   50.6940 C   0  0  0  0  0  0  0  0  0  0  0  0
   37.3880   28.0560   53.5610 C   0  0  0  0  0  0  0  0  0  0  0  0
   39.4020   26.7390   54.0010 O   0  0  0  0  0  0  0  0  0  0  0  0
   37.0930   35.1520   59.7960 C   0  0  0  0  0  0  0  0  0  0  0  0
   37.1550   38.5500   61.1900 O   0  0  0  0  0  0  0  0  0  0  0  0
  1 17  1  0
  2 28  1  0
  4  8  1  0
  4  5  1  0
  5 13  1  0
  6 25  1  0
  7 16  2  0
  8 14  1  0
  8 21  1  0
 10  3  1  0
 10 19  1  0
 11 12  1  0
 13 24  2  0
 15 32  2  0
 16 36  1  0
 16 24  1  0
 19 30  1  0
 20 31  1  0
 21 17  1  0
 21  9  1  0
 22  1  1  0
 24 27  1  0
 25 15  1  0
 25  2  2  0
 26  8  1  0
 28 23  2  0
 28 29  1  0
 29 33  1  0
 29 20  1  0
 30 22  2  0
 30 26  1  0
 31 10  1  0
 32 23  1  0
 33 18  1  0
 34 18  1  0
 34 11  1  0
 35  7  1  0
 35  5  2  0
M  END
$$$$

     RDKit          3D

 36 39  0  0  0  0  0  0  0  0999 V2000
   39.5660   30.1530   51.7750 C   0  0  0  0  0  0  0  0  0  0  0  0
   38.7170   30.7070   58.4720 C   0  0  0  0  0  0  0  0  0  0  0  0
   39.4980   26.2260   56.1800 C   0  0  0  0  0  0  0  0  0  0  0  0
   38.2060   30.3770   57.0870 C   0  0  0  0  0  0  0  0  0  0  0  0
   38.5750   29.2720   54.0860 C   0  0  0  0  0  0  0  0  0  0  0  0
   39.0350   32.7640   59.8240 C   0  0  0  0  0  0  0  0  0  0  0  0
   38.9650   35.5630   62.4650 N   0  0  0  0  0  0  0  0  0  0  0  0
   38.5150   25.5740   56.7410 O   0  0  0  0  0  0  0  0  0  0  0  0
   38.7050   33.9820   60.4540 C   0  0  0  0  0  0  0  0  0  0  0  0
   39.1100   27.7530   52.0350 C   0  0  0  0  0  0  0  0  0  0  0  0
   40.6500   26.1940   56.4970 O   0  0  0  0  0  0  0  0  0  0  0  0
   39.8030   27.4920   50.7330 C   0  0  0  0  0  0  0  0  0  0  0  0
   40.2270   28.6490   49.9740 C   0  0  0  0  0  0  0  0  0  0  0  0
   38.9220   28.5540   55.2670 N   0  0  0  0  0  0  0  0  0  0  0  0
   40.2110   31.1330   49.5890 C   0  0  0  0  0  0  0  0  0  0  0  0
   38.3010   26.3720   54.1630 C   0  0  0  0  0  0  0  0  0  0  0  0
   37.3930   37.5240   62.5300 C   0  0  0  0  0  0  0  0  0  0  0  0
   38.5430   29.0430   56.6690 C   0  0  0  0  0  0  0  0  0  0  0  0
   38.4260   33.1300   48.9450 C   0  0  0  0  0  0  0  0  0  0  0  0
   37.7790   34.9670   59.8940 C   0  0  0  0  0  0  0  0  0  0  0  0
   39.4110   27.1590   54.9550 C   0  0  0  0  0  0  0  0  0  0  0  0
   36.6860   38.2460   61.5490 C   0  0  0  0  0  0  0  0  0  0  0  0
   37.9930   33.6940   50.0010 O   0  0  0  0  0  0  0  0  0  0  0  0
   39.1070   29.0480   52.5700 C   0  0  0  0  0  0  0  0  0  0  0  0
   37.0430   37.6430   59.8800 S   0  0  0  0  0  0  0  0  0  0  0  0
   37.5390   36.1400   60.5530 C   0  0  0  0  0  0  0  0  0  0  0  0
   37.0720   34.6350   58.6860 O   0  0  0  0  0  0  0  0  0  0  0  0
   39.9840   29.9900   50.4510 C   0  0  0  0  0  0  0  0  0  0  0  0
   40.8410   33.8440   62.4890 Cl  0  0  0  0  0  0  0  0  0  0  0  0
   39.1750   31.8320   49.0550 C   0  0  0  0  0  0  0  0  0  0  0  0
   39.3370   34.4540   61.7360 C   0  0  0  0  0  0  0  0  0  0  0  0
   38.1170   31.9350   59.2150 C   0  0  0  0  0  0  0  0  0  0  0  0
   38.5960   26.3760   52.6560 C   0  0  0  0  0  0  0  0  0  0  0  0
   38.5700   30.3530   54.4040 O   0  0  0  0  0  0  0  0  0  0  0  0
   37.9990   36.3420   61.8690 C   0  0  0  0  0  0  0  0  0  0  0  0
   38.2570   33.6650   47.8410 O   0  0  0  0  0  0  0  0  0  0  0  0
  1 24  1  0
  2 32  1  0
  3 11  2  0
  3  8  1  0
  4  2  1  0
  5 34  2  0
  5 14  1  0
  6  9  1  0
  9 31  1  0
 10 24  2  0
 10 33  1  0
 12 10  1  0
 13 28  1  0
 13 12  2  0
 14 18  1  0
 15 28  1  0
 16 21  1  0
 18  4  1  0
 19 30  1  0
 19 23  1  0
 20  9  2  0
 20 26  1  0
 21 14  1  0
 21  3  1  0
 22 17  1  0
 24  5  1  0
 25 26  1  0
 25 22  1  0
 26 35  2  0
 27 20  1  0
 28  1  2  0
 30 15  1  0
 31  7  2  0
 31 29  1  0
 32  6  2  3
 33 16  1  0
 35  7  1  0
 35 17  1  0
 36 19  2  0
M  END
$$$$

     RDKit          3D

 32 34  0  0  0  0  0  0  0  0999 V2000
   39.5360   25.3340   57.6060 C   0  0  0  0  0  0  0  0  0  0  0  0
   36.5170   35.2970   59.8320 C   0  0  0  0  0  0  0  0  0  0  0  0
   40.2890   29.6270   49.2090 N   0  0  0  0  0  0  0  0  0  0  0  0
   38.7670   34.3230   60.0700 C   0  0  0  0  0  0  0  0  0  0  0  0
   37.5000   26.0880   54.2670 C   0  0  0  0  0  0  0  0  0  0  0  0
   36.9500   30.7790   55.0840 C   0  0  0  0  0  0  0  0  0  0  0  0
   39.9410   29.7340   51.4940 N   0  0  0  0  0  0  0  0  0  0  0  0
   38.2600   33.0710   57.6400 C   0  0  0  0  0  0  0  0  0  0  0  0
   38.2220   34.0080   55.4290 O   0  0  0  0  0  0  0  0  0  0  0  0
   38.0730   31.6810   55.4270 C   0  0  0  0  0  0  0  0  0  0  0  0
   37.1580   36.4100   60.1740 C   0  0  0  0  0  0  0  0  0  0  0  0
   35.2620   35.3100   58.9540 C   0  0  0  0  0  0  0  0  0  0  0  0
   39.2280   27.8770   50.3870 N   0  0  0  0  0  0  0  0  0  0  0  0
   39.1070   28.4880   56.9570 C   0  0  0  0  0  0  0  0  0  0  0  0
   37.3780   34.1320   60.1500 C   0  0  0  0  0  0  0  0  0  0  0  0
   38.5330   28.2540   54.6120 C   0  0  0  0  0  0  0  0  0  0  0  0
   38.6760   26.7960   54.5600 C   0  0  0  0  0  0  0  0  0  0  0  0
   39.9720   34.9380   61.3470 S   0  0  0  0  0  0  0  0  0  0  0  0
   39.3670   28.9130   52.3310 C   0  0  0  0  0  0  0  0  0  0  0  0
   39.7610   27.1810   56.8660 N   0  0  0  0  0  0  0  0  0  0  0  0
   39.5670   33.4630   58.6970 S   0  0  0  0  0  0  0  0  0  0  0  0
   40.0700   26.5830   57.9960 C   0  0  0  0  0  0  0  0  0  0  0  0
   38.9050   27.7170   51.7070 C   0  0  0  0  0  0  0  0  0  0  0  0
   38.6210   32.9000   56.2370 C   0  0  0  0  0  0  0  0  0  0  0  0
   39.3870   26.3220   55.7330 C   0  0  0  0  0  0  0  0  0  0  0  0
   37.9770   36.9940   60.8740 O   0  0  0  0  0  0  0  0  0  0  0  0
   39.2600   29.4570   58.1090 C   0  0  0  0  0  0  0  0  0  0  0  0
   37.0350   37.5310   60.0840 N   0  0  0  0  0  0  0  0  0  0  0  0
   39.8980   29.1610   50.2580 C   0  0  0  0  0  0  0  0  0  0  0  0
   38.1890   28.7770   55.9680 C   0  0  0  0  0  0  0  0  0  0  0  0
   39.2060   29.0780   53.7030 C   0  0  0  0  0  0  0  0  0  0  0  0
   36.9380   29.5790   56.0820 C   0  0  0  0  0  0  0  0  0  0  0  0
  1 22  1  0
  2 12  1  0
  2 15  1  0
  2 11  1  0
  3 29  1  0
  4 15  1  0
  4 18  2  0
  6 10  1  0
  6 32  1  0
  7 19  1  0
  8 21  1  0
 10 24  1  0
 11 26  1  0
 13 23  1  0
 14 27  1  0
 16 31  1  0
 16 30  1  0
 17  5  1  0
 17 16  1  0
 17 25  1  0
 19 31  1  0
 20 14  1  0
 20 22  1  0
 21  4  1  0
 23 19  2  0
 24  9  1  0
 24  8  1  0
 25 20  1  0
 28 11  2  0
 28 26  1  0
 29 13  1  0
 29  7  2  0
 30 32  1  0
 30 14  1  0
M  END
$$$$

     RDKit          3D

 41 43  0  0  0  0  0  0  0  0999 V2000
   39.7440   28.4300   51.3030 N   0  0  0  0  0  0  0  0  0  0  0  0
   37.8510   31.0650   56.4710 N   0  0  0  0  0  0  0  0  0  0  0  0
   38.2250   32.2610   58.5710 C   0  0  0  0  0  0  0  0  0  0  0  0
   40.3840   26.8970   48.6170 O   0  0  0  0  0  0  0  0  0  0  0  0
   37.6180   32.1230   59.8450 O   0  0  0  0  0  0  0  0  0  0  0  0
   39.3690   39.1460   61.6160 O   0  0  0  0  0  0  0  0  0  0  0  0
   38.2160   31.6350   62.2720 O   0  0  0  0  0  0  0  0  0  0  0  0
   37.9760   28.8900   55.6110 C   0  0  0  0  0  0  0  0  0  0  0  0
   38.0800   38.7120   61.1690 S   0  0  0  0  0  0  0  0  0  0  0  0
   37.9640   39.3400   59.9660 O   0  0  0  0  0  0  0  0  0  0  0  0
   38.3370   26.5520   52.4340 C   0  0  0  0  0  0  0  0  0  0  0  0
   39.4490   28.8240   58.2000 N   0  0  0  0  0  0  0  0  0  0  0  0
   39.7310   30.8770   51.8730 S   0  0  0  0  0  0  0  0  0  0  0  0
   39.5990   29.1730   52.3320 C   0  0  0  0  0  0  0  0  0  0  0  0
   39.1350   30.0260   60.0870 O   0  0  0  0  0  0  0  0  0  0  0  0
   39.8430   28.0870   59.2660 C   0  0  0  0  0  0  0  0  0  0  0  0
   38.1800   37.0840   60.9060 C   0  0  0  0  0  0  0  0  0  0  0  0
   35.7310   32.5630   61.1530 O   0  0  0  0  0  0  0  0  0  0  0  0
   39.6720   28.7040   60.4140 N   0  0  0  0  0  0  0  0  0  0  0  0
   36.5740   33.0310   60.0690 C   0  0  0  0  0  0  0  0  0  0  0  0
   38.9850   28.8540   47.9810 O   0  0  0  0  0  0  0  0  0  0  0  0
   37.2900   34.2040   60.3180 C   0  0  0  0  0  0  0  0  0  0  0  0
   36.9530   30.1180   55.8530 C   0  0  0  0  0  0  0  0  0  0  0  0
   39.4590   25.9590   51.8440 O   0  0  0  0  0  0  0  0  0  0  0  0
   39.7310   29.1330   49.8490 C   0  0  0  0  0  0  0  0  0  0  0  0
   37.0830   38.6640   62.2080 O   0  0  0  0  0  0  0  0  0  0  0  0
   40.0630   28.3600   48.6250 C   0  0  0  0  0  0  0  0  0  0  0  0
   39.0800   34.8680   61.4900 C   0  0  0  0  0  0  0  0  0  0  0  0
   40.2270   30.4870   50.2090 C   0  0  0  0  0  0  0  0  0  0  0  0
   38.5370   32.1320   55.7060 C   0  0  0  0  0  0  0  0  0  0  0  0
   38.1380   30.9360   57.7900 C   0  0  0  0  0  0  0  0  0  0  0  0
   37.9430   33.9190   61.7260 C   0  0  0  0  0  0  0  0  0  0  0  0
   38.8570   36.2470   61.8700 C   0  0  0  0  0  0  0  0  0  0  0  0
   38.7820   27.3270   53.7140 C   0  0  0  0  0  0  0  0  0  0  0  0
   38.8910   29.9260   58.6740 C   0  0  0  0  0  0  0  0  0  0  0  0
   37.4330   36.6090   59.7690 C   0  0  0  0  0  0  0  0  0  0  0  0
   36.5730   35.5370   60.3710 C   0  0  0  0  0  0  0  0  0  0  0  0
   36.5710   30.5110   54.6670 O   0  0  0  0  0  0  0  0  0  0  0  0
   39.2690   29.2280   54.8560 C   0  0  0  0  0  0  0  0  0  0  0  0
   39.2890   28.6880   53.5280 N   0  0  0  0  0  0  0  0  0  0  0  0
   38.7900   32.8960   61.9410 C   0  0  0  0  0  0  0  0  0  0  0  0
  1 14  2  0
  2 31  1  0
  3  5  1  0
  4 27  1  0
  5 20  1  0
  8 23  1  0
  9  6  1  0
  9 26  1  0
 10  9  1  0
 11 34  1  0
 12 35  2  0
 12 16  1  0
 13 14  1  0
 14 40  1  0
 15 19  1  0
 16 19  2  0
 17  9  1  0
 17 33  1  0
 20 18  1  0
 21 27  1  0
 22 20  1  0
 22 37  1  0
 22 32  1  0
 23 38  1  0
 23  2  1  0
 24 11  1  0
 25 27  1  0
 25 29  1  0
 25  1  1  0
 28 32  1  0
 28 33  1  0
 29 13  1  0
 30  2  1  0
 31  3  1  0
 31 35  1  0
 32 41  1  0
 35 15  1  0
 36 37  1  0
 36 17  1  0
 39  8  1  0
 40 34  1  0
 40 39  1  0
 41  7  1  0
M  END
$$$$

     RDKit          3D

 37 41  0  0  0  0  0  0  0  0999 V2000
   37.0560   35.6500   60.3110 O   0  0  0  0  0  0  0  0  0  0  0  0
   40.0290   36.7880   62.1180 C   0  0  0  0  0  0  0  0  0  0  0  0
   39.1490   29.0360   51.5210 C   0  0  0  0  0  0  0  0  0  0  0  0
   38.5380   30.2300   61.2640 C   0  0  0  0  0  0  0  0  0  0  0  0
   38.5020   28.1220   55.1930 O   0  0  0  0  0  0  0  0  0  0  0  0
   38.8420   36.3910   61.2790 C   0  0  0  0  0  0  0  0  0  0  0  0
   37.6900   30.1560   56.2130 C   0  0  0  0  0  0  0  0  0  0  0  0
   40.4380   27.7450   58.3690 C   0  0  0  0  0  0  0  0  0  0  0  0
   38.8070   33.8680   60.2490 C   0  0  0  0  0  0  0  0  0  0  0  0
   37.9230   30.5120   59.9530 C   0  0  0  0  0  0  0  0  0  0  0  0
   37.0710   36.9060   60.5650 C   0  0  0  0  0  0  0  0  0  0  0  0
   38.2800   35.2710   60.6930 C   0  0  0  0  0  0  0  0  0  0  0  0
   38.0800   30.3700   58.6080 O   0  0  0  0  0  0  0  0  0  0  0  0
   39.9530   27.8410   49.2880 C   0  0  0  0  0  0  0  0  0  0  0  0
   38.8130   29.7890   57.7330 C   0  0  0  0  0  0  0  0  0  0  0  0
   40.5050   28.0580   47.9430 C   0  0  0  0  0  0  0  0  0  0  0  0
   36.5700   32.7450   59.6150 C   0  0  0  0  0  0  0  0  0  0  0  0
   40.3630   31.4310   50.7480 Cl  0  0  0  0  0  0  0  0  0  0  0  0
   38.8810   29.1190   52.5750 C   0  0  0  0  0  0  0  0  0  0  0  0
   37.0040   30.8340   56.3340 O   0  0  0  0  0  0  0  0  0  0  0  0
   37.8220   33.3830   59.2260 N   0  0  0  0  0  0  0  0  0  0  0  0
   40.3170   30.0850   49.5960 C   0  0  0  0  0  0  0  0  0  0  0  0
   39.5500   28.5320   57.4620 C   0  0  0  0  0  0  0  0  0  0  0  0
   40.1270   26.4150   58.5550 C   0  0  0  0  0  0  0  0  0  0  0  0
   39.8820   28.8880   50.0590 C   0  0  0  0  0  0  0  0  0  0  0  0
   36.5840   31.2120   60.2570 P   0  0  0  0  0  0  0  0  0  0  0  0
   40.8620   29.2780   47.3310 C   0  0  0  0  0  0  0  0  0  0  0  0
   39.7470   26.1540   56.1200 C   0  0  0  0  0  0  0  0  0  0  0  0
   40.7720   30.3050   48.2890 C   0  0  0  0  0  0  0  0  0  0  0  0
   35.8860   31.5680   61.5300 O   0  0  0  0  0  0  0  0  0  0  0  0
   38.6060   29.6620   55.0860 C   0  0  0  0  0  0  0  0  0  0  0  0
   39.9910   25.6010   57.4830 C   0  0  0  0  0  0  0  0  0  0  0  0
   39.2360   27.6080   56.1390 C   0  0  0  0  0  0  0  0  0  0  0  0
   38.4090   30.0430   53.6690 C   0  0  0  0  0  0  0  0  0  0  0  0
   38.0060   33.6670   57.8000 C   0  0  0  0  0  0  0  0  0  0  0  0
   38.0110   37.3890   61.1990 N   0  0  0  0  0  0  0  0  0  0  0  0
   36.5930   29.7410   60.0450 O   0  0  0  0  0  0  0  0  0  0  0  0
  1 11  1  0
  1 12  1  0
  3 19  2  0
  5 33  1  0
  6  2  1  0
  7 20  2  0
  7 15  1  0
  8 24  1  0
  9 12  1  0
 10 37  1  0
 10 26  1  0
 10  4  1  0
 11 36  2  0
 12  6  2  0
 13 10  1  0
 14 25  1  0
 15 13  1  0
 16 14  2  0
 17 26  1  0
 19 34  1  0
 21 17  1  0
 21  9  1  0
 22 25  1  0
 22 18  1  0
 23 15  1  0
 23  8  1  0
 25  3  2  0
 26 30  2  0
 27 16  1  0
 27 29  1  0
 28 33  1  0
 28 32  1  0
 29 22  2  0
 31 34  1  0
 31  5  1  0
 31  7  1  0
 32 24  1  0
 33 23  2  0
 35 21  1  0
 36  6  1  0
 37 26  1  0
M  END
$$$$

     RDKit          3D

 35 38  0  0  0  0  0  0  0  0999 V2000
   39.5760   28.3130   50.7390 C   0  0  0  0  0  0  0  0  0  0  0  0
   38.1870   30.4230   59.5280 N   0  0  0  0  0  0  0  0  0  0  0  0
   38.2250   32.9760   57.4770 O   0  0  0  0  0  0  0  0  0  0  0  0
   40.6280   29.4280   48.9970 C   0  0  0  0  0  0  0  0  0  0  0  0
   39.1140   29.0420   54.1690 C   0  0  0  0  0  0  0  0  0  0  0  0
   37.6420   28.0910   52.9860 C   0  0  0  0  0  0  0  0  0  0  0  0
   37.2870   27.2510   54.0100 C   0  0  0  0  0  0  0  0  0  0  0  0
   39.6360   29.3100   53.0640 C   0  0  0  0  0  0  0  0  0  0  0  0
   38.9860   28.0930   52.1160 C   0  0  0  0  0  0  0  0  0  0  0  0
   39.4650   27.1340   49.9810 F   0  0  0  0  0  0  0  0  0  0  0  0
   39.5570   29.6030   57.8390 C   0  0  0  0  0  0  0  0  0  0  0  0
   39.9520   30.5890   49.6490 C   0  0  0  0  0  0  0  0  0  0  0  0
   38.2320   31.2980   61.8210 O   0  0  0  0  0  0  0  0  0  0  0  0
   39.8920   29.4440   56.4290 C   0  0  0  0  0  0  0  0  0  0  0  0
   37.5870   33.5000   60.5470 C   0  0  0  0  0  0  0  0  0  0  0  0
   39.2440   30.1640   55.2340 C   0  0  0  0  0  0  0  0  0  0  0  0
   38.6940   35.9260   61.1580 C   0  0  0  0  0  0  0  0  0  0  0  0
   38.5940   28.6840   57.2110 O   0  0  0  0  0  0  0  0  0  0  0  0
   38.7970   33.6540   60.9990 C   0  0  0  0  0  0  0  0  0  0  0  0
   40.4850   37.1990   62.1260 C   0  0  0  0  0  0  0  0  0  0  0  0
   40.6350   29.1770   50.1330 C   0  0  0  0  0  0  0  0  0  0  0  0
   36.7690   37.2280   60.3250 C   0  0  0  0  0  0  0  0  0  0  0  0
   39.9410   30.5160   52.2120 C   0  0  0  0  0  0  0  0  0  0  0  0
   35.9190   31.6140   59.9630 O   0  0  0  0  0  0  0  0  0  0  0  0
   39.1130   30.9220   58.3900 C   0  0  0  0  0  0  0  0  0  0  0  0
   38.2820   31.2860   55.9390 C   0  0  0  0  0  0  0  0  0  0  0  0
   37.4680   31.7290   60.4220 S   0  0  0  0  0  0  0  0  0  0  0  0
   39.6440   26.8000   52.5020 C   0  0  0  0  0  0  0  0  0  0  0  0
   38.1310   31.6290   57.4320 C   0  0  0  0  0  0  0  0  0  0  0  0
   39.6190   31.1950   50.9370 C   0  0  0  0  0  0  0  0  0  0  0  0
   36.8960   34.7690   60.1180 C   0  0  0  0  0  0  0  0  0  0  0  0
   39.4020   34.7930   61.3860 N   0  0  0  0  0  0  0  0  0  0  0  0
   37.4890   35.9420   60.5270 C   0  0  0  0  0  0  0  0  0  0  0  0
   37.5730   32.2510   54.9580 C   0  0  0  0  0  0  0  0  0  0  0  0
   39.2370   37.0830   61.5890 O   0  0  0  0  0  0  0  0  0  0  0  0
  1 10  1  0
  1  9  1  0
  2 27  1  0
  4 12  1  0
  4 21  1  0
  6  7  2  0
  8  5  1  0
  9 28  1  0
  9  6  1  0
  9  8  1  0
 11 18  1  0
 11 25  1  0
 12 30  2  0
 14 18  1  0
 14 11  1  0
 15 19  2  0
 16  5  1  0
 16 26  1  0
 16 14  1  0
 17 32  2  0
 17 35  1  0
 19 32  1  0
 21  1  1  0
 22 33  1  0
 23  8  1  0
 24 27  2  0
 25  2  1  0
 26 34  1  0
 26 29  1  0
 27 15  1  0
 27 13  2  0
 29  3  1  0
 29 25  1  0
 30 23  1  0
 31 33  2  0
 31 15  1  0
 33 17  1  0
 35 20  1  0
M  END
$$$$

     RDKit          3D

 25 26  0  0  0  0  0  0  0  0999 V2000
   39.0170   33.3600   58.3560 C   0  0  0  0  0  0  0  0  0  0  0  0
   37.2840   31.8830   54.9950 O   0  0  0  0  0  0  0  0  0  0  0  0
   39.5930   28.7900   52.1300 C   0  0  0  0  0  0  0  0  0  0  0  0
   37.9090   31.2530   58.6040 C   0  0  0  0  0  0  0  0  0  0  0  0
   37.9020   31.6890   57.3020 N   0  0  0  0  0  0  0  0  0  0  0  0
   38.9280   27.2530   50.9510 C   0  0  0  0  0  0  0  0  0  0  0  0
   39.2760   28.2870   54.3580 N   0  0  0  0  0  0  0  0  0  0  0  0
   39.2520   27.7920   52.3420 C   0  0  0  0  0  0  0  0  0  0  0  0
   39.4050   25.8060   53.9780 O   0  0  0  0  0  0  0  0  0  0  0  0
   38.3600   32.4170   59.5240 C   0  0  0  0  0  0  0  0  0  0  0  0
   38.7040   32.0600   60.8720 C   0  0  0  0  0  0  0  0  0  0  0  0
   38.7780   30.1090   55.6640 C   0  0  0  0  0  0  0  0  0  0  0  0
   38.2760   29.1690   54.5680 C   0  0  0  0  0  0  0  0  0  0  0  0
   38.5450   32.9590   57.0890 C   0  0  0  0  0  0  0  0  0  0  0  0
   40.6660   25.5360   54.6280 C   0  0  0  0  0  0  0  0  0  0  0  0
   40.4130   30.2770   50.3890 C   0  0  0  0  0  0  0  0  0  0  0  0
   37.5490   31.0470   56.1150 C   0  0  0  0  0  0  0  0  0  0  0  0
   39.3350   27.1400   53.7070 C   0  0  0  0  0  0  0  0  0  0  0  0
   40.4170   29.4580   48.3400 F   0  0  0  0  0  0  0  0  0  0  0  0
   40.0760   29.2170   49.6200 C   0  0  0  0  0  0  0  0  0  0  0  0
   40.3390   30.0020   51.5870 C   0  0  0  0  0  0  0  0  0  0  0  0
   39.5670   29.5510   56.7350 C   0  0  0  0  0  0  0  0  0  0  0  0
   36.9590   28.4390   53.8900 C   0  0  0  0  0  0  0  0  0  0  0  0
   37.0640   30.1190   59.1190 C   0  0  0  0  0  0  0  0  0  0  0  0
   39.5030   28.0880   50.0370 C   0  0  0  0  0  0  0  0  0  0  0  0
  1 10  1  0
  3  8  2  0
  4 24  1  0
  4 10  1  0
  5  4  1  0
  6  8  1  0
  7 13  2  3
  8 18  1  0
  9 15  1  0
 10 11  1  0
 12 17  1  0
 12 22  1  0
 13 12  1  0
 14  5  1  0
 14  1  1  0
 16 21  1  0
 17  2  1  0
 17  5  1  0
 18  9  1  0
 18  7  1  0
 20 19  1  0
 20 25  1  0
 20 16  1  0
 21  3  2  0
 23 13  1  0
 25  6  1  0
M  END
$$$$

     RDKit          3D

 14 14  0  0  0  0  0  0  0  0999 V2000
   36.1570   36.4950   59.1720 O   0  0  0  0  0  0  0  0  0  0  0  0
   37.5710   36.3950   59.5290 C   0  0  0  0  0  0  0  0  0  0  0  0
   38.2410   35.0140   59.5200 C   0  0  0  0  0  0  0  0  0  0  0  0
   39.8590   28.1910   50.5520 C   0  0  0  0  0  0  0  0  0  0  0  0
   38.9530   29.4800   52.7920 C   0  0  0  0  0  0  0  0  0  0  0  0
   38.3050   30.2160   54.2490 S   0  0  0  0  0  0  0  0  0  0  0  0
   40.1400   29.4780   50.7960 C   0  0  0  0  0  0  0  0  0  0  0  0
   39.0630   27.5010   51.5140 C   0  0  0  0  0  0  0  0  0  0  0  0
   38.7080   33.0120   56.3090 C   0  0  0  0  0  0  0  0  0  0  0  0
   39.7220   30.1540   51.8500 C   0  0  0  0  0  0  0  0  0  0  0  0
   38.6260   28.1530   52.6210 C   0  0  0  0  0  0  0  0  0  0  0  0
   38.6130   33.1350   57.9450 C   0  0  0  0  0  0  0  0  0  0  0  0
   39.0380   31.4320   55.6580 S   0  0  0  0  0  0  0  0  0  0  0  0
   37.7760   34.1430   58.3280 C   0  0  0  0  0  0  0  0  0  0  0  0
  1  2  1  0
  3  2  1  0
  4  7  2  0
  4  8  1  0
  5  6  1  0
  6 13  1  0
  7 10  1  0
  8 11  2  0
  9 12  1  0
 10  5  2  0
 11  5  1  0
 12 14  1  0
 13  9  1  0
 14  3  1  0
M  END
$$$$

     RDKit          3D

 36 39  0  0  0  0  0  0  0  0999 V2000
   37.9040   31.3260   57.4320 N   0  0  0  0  0  0  0  0  0  0  0  0
   39.0810   27.3770   51.0980 N   0  0  0  0  0  0  0  0  0  0  0  0
   39.9170   30.6180   54.3130 C   0  0  0  0  0  0  0  0  0  0  0  0
   38.6470   39.1260   60.8830 C   0  0  0  0  0  0  0  0  0  0  0  0
   38.5610   28.8850   54.6820 C   0  0  0  0  0  0  0  0  0  0  0  0
   38.6680   31.6950   60.7670 O   0  0  0  0  0  0  0  0  0  0  0  0
   35.9630   29.4970   58.7660 O   0  0  0  0  0  0  0  0  0  0  0  0
   38.2970   36.8940   61.2470 C   0  0  0  0  0  0  0  0  0  0  0  0
   38.7310   38.1470   61.6940 N   0  0  0  0  0  0  0  0  0  0  0  0
   36.0790   37.5380   60.5460 F   0  0  0  0  0  0  0  0  0  0  0  0
   38.8230   30.2840   55.2040 C   0  0  0  0  0  0  0  0  0  0  0  0
   37.4660   33.1430   59.5080 N   0  0  0  0  0  0  0  0  0  0  0  0
   38.3330   27.9050   53.4220 C   0  0  0  0  0  0  0  0  0  0  0  0
   36.8090   35.4780   59.9010 C   0  0  0  0  0  0  0  0  0  0  0  0
   37.2700   29.4900   59.0610 C   0  0  0  0  0  0  0  0  0  0  0  0
   39.3160   25.9870   54.5370 C   0  0  0  0  0  0  0  0  0  0  0  0
   40.0140   31.0940   49.6180 C   0  0  0  0  0  0  0  0  0  0  0  0
   39.8950   28.3930   50.5460 C   0  0  0  0  0  0  0  0  0  0  0  0
   37.0530   36.6470   60.5760 C   0  0  0  0  0  0  0  0  0  0  0  0
   38.6540   32.5190   56.8380 C   0  0  0  0  0  0  0  0  0  0  0  0
   38.8990   34.6320   60.9230 C   0  0  0  0  0  0  0  0  0  0  0  0
   37.7580   34.3220   60.1380 C   0  0  0  0  0  0  0  0  0  0  0  0
   39.0230   35.8370   61.4140 N   0  0  0  0  0  0  0  0  0  0  0  0
   39.7420   26.4500   53.1540 C   0  0  0  0  0  0  0  0  0  0  0  0
   40.2650   30.7890   50.9900 C   0  0  0  0  0  0  0  0  0  0  0  0
   37.8490   30.9610   58.7000 C   0  0  0  0  0  0  0  0  0  0  0  0
   36.9160   26.9850   53.9910 C   0  0  0  0  0  0  0  0  0  0  0  0
   40.2750   29.4890   51.4130 C   0  0  0  0  0  0  0  0  0  0  0  0
   38.5210   32.7270   55.3430 C   0  0  0  0  0  0  0  0  0  0  0  0
   39.9580   30.0370   48.7330 C   0  0  0  0  0  0  0  0  0  0  0  0
   37.7430   25.8680   54.6680 C   0  0  0  0  0  0  0  0  0  0  0  0
   38.0560   31.9360   59.7830 C   0  0  0  0  0  0  0  0  0  0  0  0
   39.7410   28.6930   49.1400 C   0  0  0  0  0  0  0  0  0  0  0  0
   38.1620   39.9650   60.4150 O   0  0  0  0  0  0  0  0  0  0  0  0
   38.6640   27.3040   52.3500 C   0  0  0  0  0  0  0  0  0  0  0  0
   38.9230   31.3800   54.9540 N   0  0  0  0  0  0  0  0  0  0  0  0
  1 26  1  0
  3 36  1  0
  3 11  1  0
  4  9  2  0
  7 15  1  0
  8 23  2  0
  8  9  1  0
 10 19  1  0
 11  5  1  0
 12 32  1  0
 12 22  1  0
 13 27  1  0
 13  5  1  0
 14 22  1  0
 14 19  2  0
 16 31  1  0
 17 25  1  0
 18  2  1  0
 18 28  1  0
 19  8  1  0
 20  1  2  3
 21 23  1  0
 22 21  2  0
 24 16  1  0
 25 28  2  0
 26 15  1  0
 26 32  1  0
 27 31  1  0
 29 20  1  0
 30 33  1  0
 30 17  2  0
 32  6  2  0
 33 18  2  0
 34  4  2  0
 35  2  1  0
 35 24  1  0
 35 13  1  0
 36 11  1  0
 36 29  1  0
M  END
$$$$

     RDKit          3D

 18 18  0  0  0  0  0  0  0  0999 V2000
   37.2140   34.7660   54.3180 S   0  0  0  0  0  0  0  0  0  0  0  0
   38.5030   34.6800   58.5710 C   0  0  0  0  0  0  0  0  0  0  0  0
   37.9300   32.4090   54.8800 N   0  0  0  0  0  0  0  0  0  0  0  0
   37.0890   29.8200   54.9400 C   0  0  0  0  0  0  0  0  0  0  0  0
   38.9020   33.6510   56.3380 C   0  0  0  0  0  0  0  0  0  0  0  0
   35.9930   35.0990   58.8990 O   0  0  0  0  0  0  0  0  0  0  0  0
   38.4940   33.7690   54.9070 C   0  0  0  0  0  0  0  0  0  0  0  0
   37.3550   28.2430   54.2610 C   0  0  0  0  0  0  0  0  0  0  0  0
   37.9390   34.0480   57.3230 C   0  0  0  0  0  0  0  0  0  0  0  0
   38.4100   27.1040   55.4350 C   0  0  0  0  0  0  0  0  0  0  0  0
   38.2480   27.2010   56.3660 O   0  0  0  0  0  0  0  0  0  0  0  0
   38.1020   36.5750   60.2070 O   0  0  0  0  0  0  0  0  0  0  0  0
   37.3920   35.7490   59.2310 S   0  0  0  0  0  0  0  0  0  0  0  0
   38.4030   30.9560   54.9560 C   0  0  0  0  0  0  0  0  0  0  0  0
   38.9200   28.5950   54.1350 C   0  0  0  0  0  0  0  0  0  0  0  0
   39.8190   26.0560   54.8420 O   0  0  0  0  0  0  0  0  0  0  0  0
   40.0120   25.6680   54.7980 O   0  0  0  0  0  0  0  0  0  0  0  0
   39.7150   29.6220   55.1860 S   0  0  0  0  0  0  0  0  0  0  0  0
  2 13  1  0
  3  7  1  0
  3 14  2  3
  4 14  1  0
  5  9  1  0
  7  1  1  0
  7  5  1  0
  8  4  1  0
  8 10  1  0
  9  2  1  0
 10 11  2  0
 13  6  1  0
 13 12  2  0
 14 18  1  0
 15  8  1  0
 15 18  1  0
 16 10  1  0
 17 16  1  0
M  END
$$$$

     RDKit          3D

 34 38  0  0  0  0  0  0  0  0999 V2000
   39.2800   25.9670   56.1490 C   0  0  0  0  0  0  0  0  0  0  0  0
   39.1790   36.0270   61.5240 C   0  0  0  0  0  0  0  0  0  0  0  0
   38.9570   28.4770   57.4960 C   0  0  0  0  0  0  0  0  0  0  0  0
   39.7370   29.3780   49.5780 C   0  0  0  0  0  0  0  0  0  0  0  0
   39.0990   26.7900   52.6480 C   0  0  0  0  0  0  0  0  0  0  0  0
   38.1740   30.5830   56.8860 C   0  0  0  0  0  0  0  0  0  0  0  0
   38.3520   38.2130   61.4090 O   0  0  0  0  0  0  0  0  0  0  0  0
   36.8120   36.9900   59.2430 O   0  0  0  0  0  0  0  0  0  0  0  0
   38.5490   26.7880   53.8030 C   0  0  0  0  0  0  0  0  0  0  0  0
   38.1090   32.1200   56.9670 C   0  0  0  0  0  0  0  0  0  0  0  0
   38.6140   29.8130   58.0860 C   0  0  0  0  0  0  0  0  0  0  0  0
   37.8410   29.6900   55.8800 N   0  0  0  0  0  0  0  0  0  0  0  0
   38.1520   33.0310   59.2690 C   0  0  0  0  0  0  0  0  0  0  0  0
   37.3500   36.4360   60.1330 C   0  0  0  0  0  0  0  0  0  0  0  0
   36.0490   33.8750   60.9940 C   0  0  0  0  0  0  0  0  0  0  0  0
   39.4270   27.9910   51.7320 C   0  0  0  0  0  0  0  0  0  0  0  0
   37.6370   32.5910   58.3850 N   0  0  0  0  0  0  0  0  0  0  0  0
   38.0360   34.2450   59.9660 C   0  0  0  0  0  0  0  0  0  0  0  0
   39.6780   29.3090   52.4180 C   0  0  0  0  0  0  0  0  0  0  0  0
   39.7570   26.1340   57.4980 C   0  0  0  0  0  0  0  0  0  0  0  0
   36.9220   30.1720   54.8600 C   0  0  0  0  0  0  0  0  0  0  0  0
   35.9160   35.1930   61.4500 O   0  0  0  0  0  0  0  0  0  0  0  0
   39.6590   29.3690   53.7040 O   0  0  0  0  0  0  0  0  0  0  0  0
   39.5470   33.7390   61.5420 O   0  0  0  0  0  0  0  0  0  0  0  0
   39.0800   34.7300   60.8080 C   0  0  0  0  0  0  0  0  0  0  0  0
   40.1340   30.5290   51.6680 C   0  0  0  0  0  0  0  0  0  0  0  0
   40.4380   36.5320   61.9920 C   0  0  0  0  0  0  0  0  0  0  0  0
   38.2250   37.0280   61.2140 C   0  0  0  0  0  0  0  0  0  0  0  0
   37.0310   35.0850   60.6340 C   0  0  0  0  0  0  0  0  0  0  0  0
   39.6610   27.9250   50.2260 C   0  0  0  0  0  0  0  0  0  0  0  0
   38.8480   27.0750   55.2900 C   0  0  0  0  0  0  0  0  0  0  0  0
   38.5580   28.4160   56.0400 C   0  0  0  0  0  0  0  0  0  0  0  0
   39.5310   27.3630   58.1330 C   0  0  0  0  0  0  0  0  0  0  0  0
   40.7290   30.1830   50.3340 C   0  0  0  0  0  0  0  0  0  0  0  0
  1 20  1  0
  2 27  1  0
  3 11  1  0
  3 33  1  0
  4 30  1  0
  4 34  1  0
  5  9  1  0
  6 10  1  0
  6 11  1  0
  8 14  2  0
  9 31  1  0
 10 17  1  0
 12 32  1  0
 12  6  1  0
 14 29  1  0
 14 28  1  0
 15 22  1  0
 16 19  2  0
 16  5  1  0
 17 13  1  0
 18 13  1  0
 18 29  1  0
 18 25  1  0
 19 23  1  0
 20 33  2  0
 21 12  1  0
 25  2  1  0
 25 24  1  0
 26 19  1  0
 28  7  2  0
 28  2  1  0
 29 15  1  0
 29 22  1  0
 30 16  1  0
 31 32  1  0
 31  1  2  0
 32  3  2  0
 34 26  1  0
M  END
$$$$

     RDKit          3D

 27 29  0  0  0  0  0  0  0  0999 V2000
   40.5420   30.2780   49.4280 Cl  0  0  0  0  0  0  0  0  0  0  0  0
   37.9870   31.0220   59.2870 C   0  0  0  0  0  0  0  0  0  0  0  0
   39.1280   30.5240   54.4650 O   0  0  0  0  0  0  0  0  0  0  0  0
   39.1180   27.1930   51.2750 C   0  0  0  0  0  0  0  0  0  0  0  0
   36.9870   33.1500   59.9480 C   0  0  0  0  0  0  0  0  0  0  0  0
   39.5160   28.0100   50.3030 C   0  0  0  0  0  0  0  0  0  0  0  0
   39.0150   27.5230   52.6520 C   0  0  0  0  0  0  0  0  0  0  0  0
   36.9260   31.8910   59.6160 N   0  0  0  0  0  0  0  0  0  0  0  0
   36.0580   28.7950   59.3870 C   0  0  0  0  0  0  0  0  0  0  0  0
   36.9130   38.0780   61.3590 O   0  0  0  0  0  0  0  0  0  0  0  0
   37.6340   35.4470   59.2870 C   0  0  0  0  0  0  0  0  0  0  0  0
   37.1780   35.9730   60.4870 C   0  0  0  0  0  0  0  0  0  0  0  0
   39.3420   30.8520   60.0740 S   0  0  0  0  0  0  0  0  0  0  0  0
   36.4120   29.9110   58.6230 O   0  0  0  0  0  0  0  0  0  0  0  0
   39.9360   29.2650   50.6420 C   0  0  0  0  0  0  0  0  0  0  0  0
   37.6660   30.0460   58.2380 N   0  0  0  0  0  0  0  0  0  0  0  0
   39.1400   28.6390   56.7440 C   0  0  0  0  0  0  0  0  0  0  0  0
   39.3350   28.4600   55.2710 N   0  0  0  0  0  0  0  0  0  0  0  0
   37.7820   29.2300   57.0200 C   0  0  0  0  0  0  0  0  0  0  0  0
   37.5370   34.0520   59.0560 C   0  0  0  0  0  0  0  0  0  0  0  0
   37.3410   37.1580   60.8880 N   0  0  0  0  0  0  0  0  0  0  0  0
   36.7480   35.0340   61.4540 C   0  0  0  0  0  0  0  0  0  0  0  0
   36.6010   33.6840   61.1560 C   0  0  0  0  0  0  0  0  0  0  0  0
   39.8360   29.6990   51.9500 C   0  0  0  0  0  0  0  0  0  0  0  0
   39.3200   28.8840   52.9550 C   0  0  0  0  0  0  0  0  0  0  0  0
   39.1820   29.4170   54.3230 C   0  0  0  0  0  0  0  0  0  0  0  0
   37.5010   38.1160   60.2850 O   0  0  0  0  0  0  0  0  0  0  0  0
  1 15  1  0
  2  8  1  0
  2 13  2  0
  4  7  1  0
  5 23  1  0
  6 15  1  0
  6  4  2  0
  7 25  2  0
  8  5  1  0
 11 12  2  0
 12 21  1  0
 12 22  1  0
 14  9  1  0
 15 24  2  0
 16 14  1  0
 16  2  1  0
 17 19  1  0
 18 17  1  0
 19 16  1  0
 20 11  1  0
 20  5  2  0
 21 10  1  0
 23 22  2  0
 24 25  1  0
 25 26  1  0
 26  3  2  0
 26 18  1  0
 27 21  1  0
 27 10  1  0
M  END
$$$$

     RDKit          3D

 24 26  0  0  0  0  0  0  0  0999 V2000
   38.8450   33.6100   59.7740 C   0  0  0  0  0  0  0  0  0  0  0  0
   37.4380   33.5680   59.3200 N   0  0  0  0  0  0  0  0  0  0  0  0
   37.8730   29.4360   58.0990 C   0  0  0  0  0  0  0  0  0  0  0  0
   38.0270   29.9990   56.8600 C   0  0  0  0  0  0  0  0  0  0  0  0
   39.3620   30.0170   53.6710 N   0  0  0  0  0  0  0  0  0  0  0  0
   39.9980   30.5610   51.3980 C   0  0  0  0  0  0  0  0  0  0  0  0
   38.1390   31.8990   55.5130 O   0  0  0  0  0  0  0  0  0  0  0  0
   39.9340   28.8110   49.5340 C   0  0  0  0  0  0  0  0  0  0  0  0
   38.9170   29.3450   54.6650 C   0  0  0  0  0  0  0  0  0  0  0  0
   39.5400   28.0330   51.7750 C   0  0  0  0  0  0  0  0  0  0  0  0
   39.9390   30.2060   49.9380 C   0  0  0  0  0  0  0  0  0  0  0  0
   38.8420   34.8230   60.7360 C   0  0  0  0  0  0  0  0  0  0  0  0
   36.7860   32.3280   59.6290 C   0  0  0  0  0  0  0  0  0  0  0  0
   37.9410   31.3720   59.6460 C   0  0  0  0  0  0  0  0  0  0  0  0
   39.0420   32.1990   60.4350 C   0  0  0  0  0  0  0  0  0  0  0  0
   37.6520   36.1640   60.0810 S   0  0  0  0  0  0  0  0  0  0  0  0
   39.6770   27.7810   50.4770 C   0  0  0  0  0  0  0  0  0  0  0  0
   39.9880   31.1500   48.9910 F   0  0  0  0  0  0  0  0  0  0  0  0
   36.6760   34.7530   59.6850 C   0  0  0  0  0  0  0  0  0  0  0  0
   39.5020   29.4000   52.3730 C   0  0  0  0  0  0  0  0  0  0  0  0
   38.0270   29.9800   59.4750 C   0  0  0  0  0  0  0  0  0  0  0  0
   37.2790   29.6750   55.6000 C   0  0  0  0  0  0  0  0  0  0  0  0
   38.6680   28.3520   54.3300 O   0  0  0  0  0  0  0  0  0  0  0  0
   38.6380   31.4340   56.6990 C   0  0  0  0  0  0  0  0  0  0  0  0
  1 15  1  0
  1 12  1  0
  2 13  1  0
  2 19  1  0
  2  1  1  0
  3 21  1  0
  4 22  1  0
  4  3  1  0
  5  9  1  0
  6 20  1  0
  7 24  1  0
  8 11  2  0
  8 17  1  0
  9 23  1  0
  9 22  1  0
 10 20  1  0
 11  6  1  0
 13 14  1  0
 14 21  1  0
 14 15  1  0
 16 12  1  0
 17 10  2  0
 18 11  1  0
 19 16  1  0
 20  5  1  0
 24  4  1  0
M  END
$$$$

     RDKit          3D

 29 30  0  0  0  0  0  0  0  0999 V2000
   39.5010   28.7190   56.3820 C   0  0  0  0  0  0  0  0  0  0  0  0
   38.2270   26.6160   52.6470 O   0  0  0  0  0  0  0  0  0  0  0  0
   39.3880   26.2950   55.9510 C   0  0  0  0  0  0  0  0  0  0  0  0
   39.1630   27.8810   54.2820 N   0  0  0  0  0  0  0  0  0  0  0  0
   38.6000   31.4450   57.5770 C   0  0  0  0  0  0  0  0  0  0  0  0
   37.8700   31.8240   55.2410 C   0  0  0  0  0  0  0  0  0  0  0  0
   39.1170   25.8670   57.4040 C   0  0  0  0  0  0  0  0  0  0  0  0
   39.0770   27.3870   55.5810 C   0  0  0  0  0  0  0  0  0  0  0  0
   38.8640   33.2940   58.8400 N   0  0  0  0  0  0  0  0  0  0  0  0
   39.3360   30.1110   53.6980 O   0  0  0  0  0  0  0  0  0  0  0  0
   38.2030   32.6340   57.8120 N   0  0  0  0  0  0  0  0  0  0  0  0
   38.7020   29.7460   55.8630 C   0  0  0  0  0  0  0  0  0  0  0  0
   38.0560   33.1530   55.2040 N   0  0  0  0  0  0  0  0  0  0  0  0
   38.1620   34.2890   59.5230 C   0  0  0  0  0  0  0  0  0  0  0  0
   37.2290   37.0170   60.1440 C   0  0  0  0  0  0  0  0  0  0  0  0
   41.1030   35.3410   61.7000 C   0  0  0  0  0  0  0  0  0  0  0  0
   39.8670   26.8440   58.1740 C   0  0  0  0  0  0  0  0  0  0  0  0
   36.8550   37.2970   62.9250 C   0  0  0  0  0  0  0  0  0  0  0  0
   39.0230   27.3500   52.9150 C   0  0  0  0  0  0  0  0  0  0  0  0
   37.0900   34.5420   59.0580 O   0  0  0  0  0  0  0  0  0  0  0  0
   38.8820   29.5910   54.3510 C   0  0  0  0  0  0  0  0  0  0  0  0
   36.7750   31.3070   54.4670 C   0  0  0  0  0  0  0  0  0  0  0  0
   40.0230   35.0750   60.9860 C   0  0  0  0  0  0  0  0  0  0  0  0
   38.8140   31.1020   56.2140 C   0  0  0  0  0  0  0  0  0  0  0  0
   37.6790   36.0370   61.1880 C   0  0  0  0  0  0  0  0  0  0  0  0
   38.8920   30.5480   58.6550 O   0  0  0  0  0  0  0  0  0  0  0  0
   38.7400   35.0750   60.5500 C   0  0  0  0  0  0  0  0  0  0  0  0
   39.1100   28.2730   57.8090 C   0  0  0  0  0  0  0  0  0  0  0  0
   38.1450   36.7920   62.2790 O   0  0  0  0  0  0  0  0  0  0  0  0
  1 28  1  0
  2 19  2  0
  3  7  1  0
  4 21  1  0
  4  8  1  0
  5 11  1  0
  5 26  2  0
  6 22  1  0
  6 24  1  0
  7 17  1  0
  8  3  1  0
  8  1  1  0
  9 14  1  0
 10 21  2  0
 11  9  1  0
 12 24  1  0
 12  1  1  0
 13  6  1  0
 14 27  1  0
 19  4  1  0
 20 14  2  0
 21 12  1  0
 23 16  1  0
 24  5  1  0
 25 15  1  0
 25 29  1  0
 27 23  1  0
 27 25  1  0
 28 17  1  0
 29 18  1  0
M  END
$$$$

     RDKit          3D

 12 12  0  0  0  0  0  0  0  0999 V2000
   39.1010   30.9400   55.8450 C   0  0  0  0  0  0  0  0  0  0  0  0
   37.9070   32.9160   55.1330 O   0  0  0  0  0  0  0  0  0  0  0  0
   38.5390   32.7720   57.5600 C   0  0  0  0  0  0  0  0  0  0  0  0
   37.5730   28.8840   54.9690 S   0  0  0  0  0  0  0  0  0  0  0  0
   38.6880   29.4630   53.7990 C   0  0  0  0  0  0  0  0  0  0  0  0
   39.7070   30.7280   54.1460 S   0  0  0  0  0  0  0  0  0  0  0  0
   37.3800   34.4900   58.6790 O   0  0  0  0  0  0  0  0  0  0  0  0
   38.8860   32.4120   56.0440 C   0  0  0  0  0  0  0  0  0  0  0  0
   37.5540   31.8720   58.0330 O   0  0  0  0  0  0  0  0  0  0  0  0
   38.5150   33.6350   58.7870 C   0  0  0  0  0  0  0  0  0  0  0  0
   38.6760   28.7700   52.5380 N   0  0  0  0  0  0  0  0  0  0  0  0
   38.2140   29.7140   56.2040 C   0  0  0  0  0  0  0  0  0  0  0  0
  1  8  1  0
  1 12  1  0
  3  9  1  0
  3 10  1  0
  4 12  1  0
  5 11  1  0
  5  6  1  0
  5  4  1  0
  6  1  1  0
  7 10  1  0
  8  2  1  0
  8  3  1  0
M  END
$$$$

     RDKit          3D

 34 37  0  0  0  0  0  0  0  0999 V2000
   39.7600   31.0360   53.5240 C   0  0  0  0  0  0  0  0  0  0  0  0
   37.5670   28.1100   52.7790 C   0  0  0  0  0  0  0  0  0  0  0  0
   39.5860   28.7380   51.8690 C   0  0  0  0  0  0  0  0  0  0  0  0
   40.7380   26.0120   56.6000 O   0  0  0  0  0  0  0  0  0  0  0  0
   37.9940   27.9030   55.2300 N   0  0  0  0  0  0  0  0  0  0  0  0
   36.4690   34.2590   60.3560 C   0  0  0  0  0  0  0  0  0  0  0  0
   38.8210   35.3760   61.2150 C   0  0  0  0  0  0  0  0  0  0  0  0
   37.1240   33.1260   59.5780 N   0  0  0  0  0  0  0  0  0  0  0  0
   37.6770   31.9380   60.1050 C   0  0  0  0  0  0  0  0  0  0  0  0
   40.0480   30.9820   51.1230 C   0  0  0  0  0  0  0  0  0  0  0  0
   38.1770   31.1340   57.9730 C   0  0  0  0  0  0  0  0  0  0  0  0
   37.9300   28.0170   56.7500 C   0  0  0  0  0  0  0  0  0  0  0  0
   37.3150   27.2480   54.0450 C   0  0  0  0  0  0  0  0  0  0  0  0
   39.1430   27.7220   56.1820 C   0  0  0  0  0  0  0  0  0  0  0  0
   38.6730   30.2720   56.9970 O   0  0  0  0  0  0  0  0  0  0  0  0
   38.6410   30.5110   55.6850 C   0  0  0  0  0  0  0  0  0  0  0  0
   38.4000   32.2210   57.0080 C   0  0  0  0  0  0  0  0  0  0  0  0
   37.9900   31.8470   55.6820 C   0  0  0  0  0  0  0  0  0  0  0  0
   40.3700   27.0350   55.6020 C   0  0  0  0  0  0  0  0  0  0  0  0
   39.7650   30.1650   52.2330 C   0  0  0  0  0  0  0  0  0  0  0  0
   38.1890   31.8700   61.1730 O   0  0  0  0  0  0  0  0  0  0  0  0
   40.1870   30.4590   49.8580 C   0  0  0  0  0  0  0  0  0  0  0  0
   36.9400   36.9120   61.2290 C   0  0  0  0  0  0  0  0  0  0  0  0
   36.5350   37.4620   60.1960 O   0  0  0  0  0  0  0  0  0  0  0  0
   39.9950   26.3640   53.9500 S   0  0  0  0  0  0  0  0  0  0  0  0
   40.1480   29.1730   49.5880 C   0  0  0  0  0  0  0  0  0  0  0  0
   37.3880   35.4670   61.1410 C   0  0  0  0  0  0  0  0  0  0  0  0
   39.7930   35.2320   60.5860 C   0  0  0  0  0  0  0  0  0  0  0  0
   37.1400   37.6030   62.3820 O   0  0  0  0  0  0  0  0  0  0  0  0
   37.4740   30.6980   59.2060 C   0  0  0  0  0  0  0  0  0  0  0  0
   38.9520   27.3020   52.5630 S   0  0  0  0  0  0  0  0  0  0  0  0
   39.8300   28.3330   50.6470 C   0  0  0  0  0  0  0  0  0  0  0  0
   38.1710   33.8590   57.1640 C   0  0  0  0  0  0  0  0  0  0  0  0
   39.9160   30.4350   54.8940 C   0  0  0  0  0  0  0  0  0  0  0  0
  1 34  1  0
  2 13  1  0
  3 20  1  0
  5 13  1  0
  5 14  1  0
  5 12  1  0
  8  9  1  0
  8  6  1  0
  9 21  2  0
 10 20  2  0
 11 30  1  0
 14 12  1  0
 15 11  1  0
 16 34  1  0
 16 15  1  0
 17 33  1  0
 17 11  1  0
 18 16  1  0
 18 17  1  0
 19 14  1  0
 19  4  1  0
 20  1  1  0
 22 10  1  0
 23 29  1  0
 24 23  2  0
 25 19  1  0
 26 22  2  0
 26 32  1  0
 27  6  1  0
 27  7  1  0
 27 23  1  0
 28  7  2  0
 30  9  1  0
 31  3  1  0
 31  2  1  0
 31 25  1  0
 32  3  2  0
M  END
$$$$

     RDKit          3D

 16 17  0  0  0  0  0  0  0  0999 V2000
   38.2080   36.4950   61.6280 C   0  0  0  0  0  0  0  0  0  0  0  0
   37.7580   34.3940   60.2910 C   0  0  0  0  0  0  0  0  0  0  0  0
   39.6150   26.7540   55.8530 C   0  0  0  0  0  0  0  0  0  0  0  0
   38.9990   32.3650   59.8140 N   0  0  0  0  0  0  0  0  0  0  0  0
   38.0370   37.8510   61.4550 N   0  0  0  0  0  0  0  0  0  0  0  0
   38.5280   28.2900   57.7180 C   0  0  0  0  0  0  0  0  0  0  0  0
   37.1950   36.7340   59.6590 C   0  0  0  0  0  0  0  0  0  0  0  0
   37.6980   29.5670   57.6060 C   0  0  0  0  0  0  0  0  0  0  0  0
   38.9710   33.6430   60.2340 C   0  0  0  0  0  0  0  0  0  0  0  0
   36.6520   32.3620   59.5420 N   0  0  0  0  0  0  0  0  0  0  0  0
   38.1190   30.4550   58.7350 C   0  0  0  0  0  0  0  0  0  0  0  0
   38.4000   27.2960   56.5900 C   0  0  0  0  0  0  0  0  0  0  0  0
   37.7220   35.8310   60.5420 C   0  0  0  0  0  0  0  0  0  0  0  0
   37.8790   31.8420   59.2910 C   0  0  0  0  0  0  0  0  0  0  0  0
   37.4100   37.9630   60.2370 N   0  0  0  0  0  0  0  0  0  0  0  0
   36.5900   33.6150   60.0510 C   0  0  0  0  0  0  0  0  0  0  0  0
  2 13  1  0
  3 12  1  0
  4  9  1  0
  5  1  1  0
  7 15  2  0
  7 13  1  0
  8  6  1  0
  8 11  1  0
  9  2  2  0
 10 16  2  0
 11 14  1  0
 12  6  1  0
 13  1  2  0
 14 10  1  0
 14  4  2  0
 15  5  1  0
 16  2  1  0
M  END
$$$$

     RDKit          3D

 13 12  0  0  0  0  0  0  0  0999 V2000
   38.1840   28.0620   51.5410 O   0  0  0  0  0  0  0  0  0  0  0  0
   37.2890   36.0550   60.1140 C   0  0  0  0  0  0  0  0  0  0  0  0
   39.1890   31.0630   54.0280 C   0  0  0  0  0  0  0  0  0  0  0  0
   39.3220   28.5730   50.8400 C   0  0  0  0  0  0  0  0  0  0  0  0
   38.1810   33.1210   58.7560 C   0  0  0  0  0  0  0  0  0  0  0  0
   36.7650   34.6270   59.8500 C   0  0  0  0  0  0  0  0  0  0  0  0
   39.8000   29.7870   51.6600 C   0  0  0  0  0  0  0  0  0  0  0  0
   37.0940   37.0740   59.4140 O   0  0  0  0  0  0  0  0  0  0  0  0
   39.0590   31.2400   55.6080 C   0  0  0  0  0  0  0  0  0  0  0  0
   37.1820   34.0950   58.5410 O   0  0  0  0  0  0  0  0  0  0  0  0
   39.5030   29.7440   53.1450 C   0  0  0  0  0  0  0  0  0  0  0  0
   38.3290   32.5180   56.1180 N   0  0  0  0  0  0  0  0  0  0  0  0
   38.5150   32.3530   57.5660 C   0  0  0  0  0  0  0  0  0  0  0  0
  3  9  1  0
  4  1  1  0
  4  7  1  0
  6  2  1  0
  7 11  1  0
  8  2  2  0
  9 12  1  0
 10  5  1  0
 10  6  1  0
 11  3  2  3
 12 13  1  0
 13  5  1  0
M  END
$$$$

     RDKit          3D

 32 35  0  0  0  0  0  0  0  0999 V2000
   38.2540   31.5810   57.4010 N   0  0  0  0  0  0  0  0  0  0  0  0
   37.3970   29.0810   57.4020 O   0  0  0  0  0  0  0  0  0  0  0  0
   37.7420   38.6330   60.3120 O   0  0  0  0  0  0  0  0  0  0  0  0
   39.7340   27.4690   52.3620 C   0  0  0  0  0  0  0  0  0  0  0  0
   37.1600   27.9330   54.4700 C   0  0  0  0  0  0  0  0  0  0  0  0
   39.6460   30.2420   54.0240 S   0  0  0  0  0  0  0  0  0  0  0  0
   36.2350   37.0010   59.2170 O   0  0  0  0  0  0  0  0  0  0  0  0
   38.4490   31.1680   59.0660 C   0  0  0  0  0  0  0  0  0  0  0  0
   39.5410   27.2250   53.8030 C   0  0  0  0  0  0  0  0  0  0  0  0
   39.7470   28.6200   51.5880 C   0  0  0  0  0  0  0  0  0  0  0  0
   38.2080   30.3570   56.3430 S   0  0  0  0  0  0  0  0  0  0  0  0
   39.9970   25.2960   55.4560 N   0  0  0  0  0  0  0  0  0  0  0  0
   36.3010   33.5310   60.8000 O   0  0  0  0  0  0  0  0  0  0  0  0
   39.8280   29.8810   52.1120 C   0  0  0  0  0  0  0  0  0  0  0  0
   39.0540   34.0810   60.3060 C   0  0  0  0  0  0  0  0  0  0  0  0
   37.9330   36.9280   62.2760 O   0  0  0  0  0  0  0  0  0  0  0  0
   38.5190   28.1480   54.1990 N   0  0  0  0  0  0  0  0  0  0  0  0
   37.5400   37.2380   59.9480 C   0  0  0  0  0  0  0  0  0  0  0  0
   40.1110   30.7940   49.8560 C   0  0  0  0  0  0  0  0  0  0  0  0
   38.1650   32.9690   57.2750 C   0  0  0  0  0  0  0  0  0  0  0  0
   37.1660   30.9730   55.4680 O   0  0  0  0  0  0  0  0  0  0  0  0
   36.9640   34.4220   59.9990 C   0  0  0  0  0  0  0  0  0  0  0  0
   39.0780   29.1870   55.2450 C   0  0  0  0  0  0  0  0  0  0  0  0
   39.9030   30.8020   51.2450 C   0  0  0  0  0  0  0  0  0  0  0  0
   37.9710   35.0360   60.9530 C   0  0  0  0  0  0  0  0  0  0  0  0
   40.1710   29.5190   49.2590 C   0  0  0  0  0  0  0  0  0  0  0  0
   39.9350   28.3750   50.0990 C   0  0  0  0  0  0  0  0  0  0  0  0
   38.9500   32.5950   60.3560 O   0  0  0  0  0  0  0  0  0  0  0  0
   39.7480   25.8440   54.3500 C   0  0  0  0  0  0  0  0  0  0  0  0
   37.7410   36.4520   61.1370 C   0  0  0  0  0  0  0  0  0  0  0  0
   37.6600   33.5390   58.7650 C   0  0  0  0  0  0  0  0  0  0  0  0
   38.1590   32.4390   59.6110 C   0  0  0  0  0  0  0  0  0  0  0  0
  1  8  1  0
  4  9  1  0
  6 23  1  0
  7 18  1  0
  9 17  1  0
  9 29  1  0
 10 14  1  0
 10  4  1  0
 11  1  1  0
 11  2  2  0
 14  6  1  0
 15 28  1  0
 15 25  1  0
 17  5  1  0
 17 23  1  0
 18  3  1  0
 18 30  1  0
 19 24  1  0
 20  1  1  0
 21 11  2  0
 22 13  1  0
 22 25  1  0
 23 11  1  0
 24 14  2  0
 25 30  1  0
 26 19  2  0
 26 27  1  0
 27 10  2  0
 29 12  2  0
 30 16  2  0
 31 20  1  0
 31 32  1  0
 31 22  1  0
 32  8  1  0
 32 28  1  0
M  END
$$$$

     RDKit          3D

 21 23  0  0  0  0  0  0  0  0999 V2000
   38.7890   27.8350   53.8070 C   0  0  0  0  0  0  0  0  0  0  0  0
   39.5230   29.9260   52.9120 C   0  0  0  0  0  0  0  0  0  0  0  0
   39.4010   25.1730   56.2660 N   0  0  0  0  0  0  0  0  0  0  0  0
   38.0070   32.0310   54.5150 O   0  0  0  0  0  0  0  0  0  0  0  0
   39.9690   29.3990   49.0920 C   0  0  0  0  0  0  0  0  0  0  0  0
   39.6550   26.9170   49.2920 C   0  0  0  0  0  0  0  0  0  0  0  0
   38.0830   24.8620   56.1240 C   0  0  0  0  0  0  0  0  0  0  0  0
   37.8110   30.8200   55.1170 C   0  0  0  0  0  0  0  0  0  0  0  0
   38.7320   27.3000   52.5570 N   0  0  0  0  0  0  0  0  0  0  0  0
   38.9230   29.1820   54.0720 C   0  0  0  0  0  0  0  0  0  0  0  0
   39.2380   28.0640   51.5480 C   0  0  0  0  0  0  0  0  0  0  0  0
   40.0350   30.1330   50.4360 C   0  0  0  0  0  0  0  0  0  0  0  0
   39.6010   29.3700   51.6330 C   0  0  0  0  0  0  0  0  0  0  0  0
   38.7380   26.7620   54.7530 C   0  0  0  0  0  0  0  0  0  0  0  0
   40.3150   27.9510   48.8720 C   0  0  0  0  0  0  0  0  0  0  0  0
   39.3500   27.2740   50.7820 C   0  0  0  0  0  0  0  0  0  0  0  0
   37.3320   23.4840   56.8410 Cl  0  0  0  0  0  0  0  0  0  0  0  0
   37.2750   25.8890   55.0860 S   0  0  0  0  0  0  0  0  0  0  0  0
   38.7030   29.6860   55.1010 N   0  0  0  0  0  0  0  0  0  0  0  0
   39.7460   26.1880   55.3090 C   0  0  0  0  0  0  0  0  0  0  0  0
   36.8100   30.7240   55.7480 O   0  0  0  0  0  0  0  0  0  0  0  0
  1 10  1  0
  2 10  2  0
  4  8  2  0
  5 12  1  0
  6 16  1  0
  7  3  1  0
  7 17  1  0
  8 21  1  0
  9  1  2  0
 10 19  1  0
 11 13  2  0
 11  9  1  0
 12 13  1  0
 13  2  1  0
 14  1  1  0
 14 18  1  0
 14 20  1  0
 15  5  1  0
 15  6  1  0
 16 11  1  0
 18  7  1  0
 19  8  1  0
 20  3  1  0
M  END
$$$$

     RDKit          3D

 12 11  0  0  0  0  0  0  0  0999 V2000
   38.1180   28.0190   52.4560 S   0  0  0  0  0  0  0  0  0  0  0  0
   38.7400   32.9350   56.4560 C   0  0  0  0  0  0  0  0  0  0  0  0
   38.6630   33.1440   57.8210 C   0  0  0  0  0  0  0  0  0  0  0  0
   38.5990   31.2900   54.5520 C   0  0  0  0  0  0  0  0  0  0  0  0
   38.8140   28.6150   54.1190 S   0  0  0  0  0  0  0  0  0  0  0  0
   39.2790   28.0160   51.0150 Cl  0  0  0  0  0  0  0  0  0  0  0  0
   36.5560   37.0640   59.2420 O   0  0  0  0  0  0  0  0  0  0  0  0
   37.5850   34.7130   59.4400 C   0  0  0  0  0  0  0  0  0  0  0  0
   37.4260   33.9140   58.1190 N   0  0  0  0  0  0  0  0  0  0  0  0
   37.7900   29.9460   54.6050 C   0  0  0  0  0  0  0  0  0  0  0  0
   37.5680   36.2120   59.9760 C   0  0  0  0  0  0  0  0  0  0  0  0
   38.2270   32.2420   55.5580 C   0  0  0  0  0  0  0  0  0  0  0  0
  1  5  1  0
  2  3  1  0
  3  9  1  0
  4 10  1  0
  4 12  1  0
  5 10  1  0
  6  1  1  0
  7 11  1  0
  8 11  1  0
  9  8  1  0
 12  2  1  0
M  END
$$$$

     RDKit          3D

 25 26  0  0  0  0  0  0  0  0999 V2000
   40.2390   26.5340   51.9570 O   0  0  0  0  0  0  0  0  0  0  0  0
   37.9940   32.4100   58.1260 N   0  0  0  0  0  0  0  0  0  0  0  0
   36.8520   34.9300   59.2710 C   0  0  0  0  0  0  0  0  0  0  0  0
   38.3870   31.1560   57.6280 C   0  0  0  0  0  0  0  0  0  0  0  0
   39.6080   27.9830   50.0450 C   0  0  0  0  0  0  0  0  0  0  0  0
   38.3670   36.2540   61.1820 C   0  0  0  0  0  0  0  0  0  0  0  0
   38.6800   34.8790   60.9450 C   0  0  0  0  0  0  0  0  0  0  0  0
   37.9260   34.1750   59.9760 C   0  0  0  0  0  0  0  0  0  0  0  0
   39.1720   29.8920   53.3360 C   0  0  0  0  0  0  0  0  0  0  0  0
   37.6670   30.5690   55.2480 C   0  0  0  0  0  0  0  0  0  0  0  0
   40.0490   34.2910   61.7660 Cl  0  0  0  0  0  0  0  0  0  0  0  0
   38.8240   31.1190   56.1830 C   0  0  0  0  0  0  0  0  0  0  0  0
   40.0640   30.7040   53.4960 O   0  0  0  0  0  0  0  0  0  0  0  0
   39.0300   28.9030   52.3120 N   0  0  0  0  0  0  0  0  0  0  0  0
   37.8690   28.0670   52.4990 N   0  0  0  0  0  0  0  0  0  0  0  0
   39.6870   26.6320   50.6660 C   0  0  0  0  0  0  0  0  0  0  0  0
   38.1170   29.6640   54.1500 C   0  0  0  0  0  0  0  0  0  0  0  0
   38.0630   32.7280   59.6380 C   0  0  0  0  0  0  0  0  0  0  0  0
   38.8070   33.4470   57.3830 C   0  0  0  0  0  0  0  0  0  0  0  0
   39.8610   29.1340   51.0530 C   0  0  0  0  0  0  0  0  0  0  0  0
   36.7570   36.2860   59.4810 C   0  0  0  0  0  0  0  0  0  0  0  0
   37.4530   28.5080   53.6450 C   0  0  0  0  0  0  0  0  0  0  0  0
   40.1490   30.5200   50.5720 C   0  0  0  0  0  0  0  0  0  0  0  0
   38.3830   31.3900   60.3610 C   0  0  0  0  0  0  0  0  0  0  0  0
   37.4480   36.9300   60.4530 C   0  0  0  0  0  0  0  0  0  0  0  0
  2 18  1  0
  3 21  2  0
  3  8  1  0
  4  2  1  0
  5 16  1  0
  5 20  1  0
  7  6  1  0
  7 11  1  0
  8  7  2  0
  9 13  2  0
  9 17  1  0
 10 12  1  0
 12  4  1  0
 14 15  1  0
 14  9  1  0
 15 22  2  0
 16  1  1  0
 17 10  1  0
 18  8  1  0
 18 24  1  0
 19  2  1  0
 20 23  1  0
 20 14  1  0
 21 25  1  0
 22 17  1  0
 25  6  2  0
M  END
$$$$

     RDKit          3D

 33 35  0  0  0  0  0  0  0  0999 V2000
   38.7190   37.0920   61.5420 C   0  0  0  0  0  0  0  0  0  0  0  0
   39.5950   30.0240   48.8470 C   0  0  0  0  0  0  0  0  0  0  0  0
   39.3380   31.1670   49.5870 C   0  0  0  0  0  0  0  0  0  0  0  0
   38.4700   31.9500   58.0160 C   0  0  0  0  0  0  0  0  0  0  0  0
   36.9090   37.2490   60.3130 N   0  0  0  0  0  0  0  0  0  0  0  0
   40.2930   34.6180   62.1400 C   0  0  0  0  0  0  0  0  0  0  0  0
   39.4120   27.9490   53.2720 C   0  0  0  0  0  0  0  0  0  0  0  0
   38.4610   33.2890   55.8970 C   0  0  0  0  0  0  0  0  0  0  0  0
   38.7670   31.9570   56.4010 C   0  0  0  0  0  0  0  0  0  0  0  0
   36.7400   34.6840   59.5760 C   0  0  0  0  0  0  0  0  0  0  0  0
   39.3170   29.2010   53.9480 C   0  0  0  0  0  0  0  0  0  0  0  0
   38.3610   32.7230   61.3020 O   0  0  0  0  0  0  0  0  0  0  0  0
   37.7750   29.1310   56.8610 C   0  0  0  0  0  0  0  0  0  0  0  0
   36.9130   29.1530   58.5840 C   0  0  0  0  0  0  0  0  0  0  0  0
   38.5980   32.8570   58.9430 C   0  0  0  0  0  0  0  0  0  0  0  0
   37.3070   33.8650   58.5840 N   0  0  0  0  0  0  0  0  0  0  0  0
   39.1240   30.3700   53.1010 C   0  0  0  0  0  0  0  0  0  0  0  0
   37.2650   35.9770   60.2390 C   0  0  0  0  0  0  0  0  0  0  0  0
   39.4720   34.7770   60.8870 C   0  0  0  0  0  0  0  0  0  0  0  0
   38.9380   33.3670   60.3070 C   0  0  0  0  0  0  0  0  0  0  0  0
   39.1000   32.1250   48.8890 O   0  0  0  0  0  0  0  0  0  0  0  0
   39.4310   31.2100   51.0120 C   0  0  0  0  0  0  0  0  0  0  0  0
   38.5170   35.9450   60.9320 C   0  0  0  0  0  0  0  0  0  0  0  0
   39.5500   27.3620   58.6830 C   0  0  0  0  0  0  0  0  0  0  0  0
   40.0620   26.1830   57.9430 C   0  0  0  0  0  0  0  0  0  0  0  0
   39.8670   28.7840   49.5880 C   0  0  0  0  0  0  0  0  0  0  0  0
   38.7690   29.5010   55.7340 C   0  0  0  0  0  0  0  0  0  0  0  0
   38.3760   30.9830   55.5950 O   0  0  0  0  0  0  0  0  0  0  0  0
   37.7600   37.9260   61.1550 N   0  0  0  0  0  0  0  0  0  0  0  0
   38.3430   27.0450   53.8870 C   0  0  0  0  0  0  0  0  0  0  0  0
   39.4570   30.0950   51.6590 C   0  0  0  0  0  0  0  0  0  0  0  0
   39.6960   28.8650   50.9840 C   0  0  0  0  0  0  0  0  0  0  0  0
   39.1150   28.4800   57.5030 O   0  0  0  0  0  0  0  0  0  0  0  0
  2  3  1  0
  2 26  2  0
  3 22  1  0
  5 29  1  0
  7 30  1  0
  7 11  1  0
  9  8  1  0
  9  4  1  0
 10 18  1  0
 11 17  1  0
 11 27  1  0
 13 33  1  0
 13 14  1  0
 15  4  1  0
 15 20  1  0
 16 15  1  0
 16 10  1  0
 18  5  2  0
 18 23  1  0
 19 23  1  0
 19  6  1  0
 20 19  1  0
 20 12  1  0
 21  3  2  0
 22 31  2  0
 23  1  2  0
 25 24  1  0
 26 32  1  0
 27 28  1  0
 27 13  1  0
 28  9  1  0
 29  1  1  0
 31 17  1  0
 32 31  1  0
 33 24  1  0
M  END
$$$$

     RDKit          3D

 26 29  0  0  0  0  0  0  0  0999 V2000
   37.8310   33.0910   57.4880 N   0  0  0  0  0  0  0  0  0  0  0  0
   40.7280   30.3820   49.2200 C   0  0  0  0  0  0  0  0  0  0  0  0
   38.9470   32.4600   59.5820 N   0  0  0  0  0  0  0  0  0  0  0  0
   38.3940   36.5310   61.1780 C   0  0  0  0  0  0  0  0  0  0  0  0
   39.5720   29.2370   50.5520 C   0  0  0  0  0  0  0  0  0  0  0  0
   39.1910   28.1480   52.4630 C   0  0  0  0  0  0  0  0  0  0  0  0
   39.6760   30.5380   51.8100 S   0  0  0  0  0  0  0  0  0  0  0  0
   36.9240   37.1800   59.2710 N   0  0  0  0  0  0  0  0  0  0  0  0
   40.2570   29.2390   49.2200 O   0  0  0  0  0  0  0  0  0  0  0  0
   37.6380   36.4130   60.0220 C   0  0  0  0  0  0  0  0  0  0  0  0
   39.0810   29.6460   52.9570 C   0  0  0  0  0  0  0  0  0  0  0  0
   41.3960   32.9520   62.0730 C   0  0  0  0  0  0  0  0  0  0  0  0
   39.0070   32.2740   55.7790 C   0  0  0  0  0  0  0  0  0  0  0  0
   40.1630   32.2180   61.5800 C   0  0  0  0  0  0  0  0  0  0  0  0
   38.1670   33.3980   58.8360 C   0  0  0  0  0  0  0  0  0  0  0  0
   37.6970   28.9700   55.1860 C   0  0  0  0  0  0  0  0  0  0  0  0
   37.5540   27.5350   54.3390 C   0  0  0  0  0  0  0  0  0  0  0  0
   38.8010   33.2520   56.6340 O   0  0  0  0  0  0  0  0  0  0  0  0
   38.4340   30.1300   54.3340 C   0  0  0  0  0  0  0  0  0  0  0  0
   38.2200   30.9440   55.8290 C   0  0  0  0  0  0  0  0  0  0  0  0
   37.9350   34.6890   59.6360 N   0  0  0  0  0  0  0  0  0  0  0  0
   38.9900   35.3280   61.5800 C   0  0  0  0  0  0  0  0  0  0  0  0
   38.7330   34.4070   60.7200 C   0  0  0  0  0  0  0  0  0  0  0  0
   39.6840   27.7830   51.1250 C   0  0  0  0  0  0  0  0  0  0  0  0
   39.4080   33.0380   60.6130 C   0  0  0  0  0  0  0  0  0  0  0  0
   38.3190   27.1620   53.2290 C   0  0  0  0  0  0  0  0  0  0  0  0
  1 15  1  0
  2  9  1  0
  3 25  1  0
  4 22  1  0
  5  9  1  0
  5 24  1  0
  5  7  1  0
  6 11  2  0
  6 26  1  0
  7 11  1  0
  8 10  1  0
 10  4  2  0
 11 19  1  0
 13 20  1  0
 13 18  1  0
 14 12  1  0
 15  3  2  0
 15 21  1  0
 17 16  1  0
 18  1  1  0
 19 16  2  0
 19 20  1  0
 21 10  1  0
 21 23  1  0
 23 22  2  0
 24  6  1  0
 25 23  1  0
 25 14  1  0
 26 17  2  0
M  END
$$$$

     RDKit          3D

 37 38  0  0  0  0  0  0  0  0999 V2000
   41.0220   30.2820   49.0860 O   0  0  0  0  0  0  0  0  0  0  0  0
   40.3620   36.0390   61.8500 O   0  0  0  0  0  0  0  0  0  0  0  0
   37.6210   29.5750   58.4360 C   0  0  0  0  0  0  0  0  0  0  0  0
   37.0170   35.3560   60.7920 C   0  0  0  0  0  0  0  0  0  0  0  0
   38.8880   28.3950   52.3070 C   0  0  0  0  0  0  0  0  0  0  0  0
   39.5680   28.4950   49.9430 C   0  0  0  0  0  0  0  0  0  0  0  0
   39.5530   34.0990   60.7210 C   0  0  0  0  0  0  0  0  0  0  0  0
   40.3240   29.8110   50.1400 C   0  0  0  0  0  0  0  0  0  0  0  0
   38.6280   32.2170   56.3470 C   0  0  0  0  0  0  0  0  0  0  0  0
   37.7850   28.7730   57.3640 C   0  0  0  0  0  0  0  0  0  0  0  0
   39.5120   28.0320   48.7550 F   0  0  0  0  0  0  0  0  0  0  0  0
   38.9620   27.8010   51.0160 C   0  0  0  0  0  0  0  0  0  0  0  0
   38.7000   26.8230   56.4370 C   0  0  0  0  0  0  0  0  0  0  0  0
   37.1870   34.0240   60.4420 C   0  0  0  0  0  0  0  0  0  0  0  0
   38.0640   28.7060   54.8190 C   0  0  0  0  0  0  0  0  0  0  0  0
   38.1320   27.8680   53.5370 C   0  0  0  0  0  0  0  0  0  0  0  0
   38.7350   25.6310   55.3440 C   0  0  0  0  0  0  0  0  0  0  0  0
   38.4320   38.0250   61.4060 O   0  0  0  0  0  0  0  0  0  0  0  0
   38.0380   32.5380   57.7600 N   0  0  0  0  0  0  0  0  0  0  0  0
   40.2340   30.3960   51.4310 C   0  0  0  0  0  0  0  0  0  0  0  0
   36.8010   31.8470   61.3060 O   0  0  0  0  0  0  0  0  0  0  0  0
   37.6910   30.3090   54.7330 C   0  0  0  0  0  0  0  0  0  0  0  0
   38.5640   33.6010   59.9690 C   0  0  0  0  0  0  0  0  0  0  0  0
   39.4190   35.2760   61.2120 C   0  0  0  0  0  0  0  0  0  0  0  0
   38.7220   32.3990   58.8910 C   0  0  0  0  0  0  0  0  0  0  0  0
   38.1260   28.1490   56.2100 C   0  0  0  0  0  0  0  0  0  0  0  0
   39.5290   26.6530   57.7400 C   0  0  0  0  0  0  0  0  0  0  0  0
   40.8420   27.3100   57.1820 C   0  0  0  0  0  0  0  0  0  0  0  0
   38.2810   37.2000   61.5020 C   0  0  0  0  0  0  0  0  0  0  0  0
   42.1840   26.8730   57.9860 C   0  0  0  0  0  0  0  0  0  0  0  0
   40.3110   36.0550   63.2550 C   0  0  0  0  0  0  0  0  0  0  0  0
   38.1210   36.0630   61.1300 C   0  0  0  0  0  0  0  0  0  0  0  0
   36.1860   32.9800   60.7160 C   0  0  0  0  0  0  0  0  0  0  0  0
   34.7830   33.2780   60.4320 C   0  0  0  0  0  0  0  0  0  0  0  0
   38.0900   33.4160   55.3060 O   0  0  0  0  0  0  0  0  0  0  0  0
   39.5300   29.7260   52.4700 C   0  0  0  0  0  0  0  0  0  0  0  0
   38.8780   30.8970   55.5550 C   0  0  0  0  0  0  0  0  0  0  0  0
  1  8  1  0
  2 31  1  0
  4 32  1  0
  5 36  1  0
  5 16  1  0
  6  8  2  0
  6 12  1  0
  7 24  2  0
  8 20  1  0
  9 19  1  0
 10  3  1  0
 11  6  1  0
 12  5  2  0
 13 17  1  0
 13 27  1  0
 14 33  1  0
 14  4  1  0
 15 16  1  0
 15 26  1  0
 18 29  2  0
 19 25  1  0
 20 36  2  0
 22 15  1  0
 22 37  1  0
 23 25  1  0
 23 14  1  0
 23  7  1  0
 24  2  1  0
 26 13  1  0
 26 10  1  0
 28 27  1  0
 28 30  1  0
 32 24  1  0
 32 29  2  0
 33 34  1  0
 33 21  1  0
 35  9  2  0
 37  9  1  0
M  END
$$$$

     RDKit          3D

 35 38  0  0  0  0  0  0  0  0999 V2000
   38.6690   32.7210   56.8410 C   0  0  0  0  0  0  0  0  0  0  0  0
   36.8050   34.0940   61.5740 O   0  0  0  0  0  0  0  0  0  0  0  0
   38.2540   33.6000   61.4430 C   0  0  0  0  0  0  0  0  0  0  0  0
   36.2960   36.7560   58.9400 O   0  0  0  0  0  0  0  0  0  0  0  0
   38.5020   30.4920   55.7220 C   0  0  0  0  0  0  0  0  0  0  0  0
   35.6850   35.4870   58.6270 C   0  0  0  0  0  0  0  0  0  0  0  0
   41.4540   35.1710   62.5090 C   0  0  0  0  0  0  0  0  0  0  0  0
   35.8580   33.8040   60.5540 C   0  0  0  0  0  0  0  0  0  0  0  0
   40.4680   29.3970   49.0050 F   0  0  0  0  0  0  0  0  0  0  0  0
   40.0700   29.1140   50.2510 C   0  0  0  0  0  0  0  0  0  0  0  0
   39.5990   29.9570   52.5910 C   0  0  0  0  0  0  0  0  0  0  0  0
   39.4790   29.0070   55.1180 S   0  0  0  0  0  0  0  0  0  0  0  0
   37.5040   29.9190   56.6890 C   0  0  0  0  0  0  0  0  0  0  0  0
   40.3700   34.1910   62.6780 C   0  0  0  0  0  0  0  0  0  0  0  0
   39.1520   34.7690   61.9370 N   0  0  0  0  0  0  0  0  0  0  0  0
   41.0660   36.4620   63.1720 O   0  0  0  0  0  0  0  0  0  0  0  0
   39.9820   30.1240   51.3100 C   0  0  0  0  0  0  0  0  0  0  0  0
   40.1120   37.0710   62.3180 C   0  0  0  0  0  0  0  0  0  0  0  0
   38.2610   26.7870   53.7440 F   0  0  0  0  0  0  0  0  0  0  0  0
   38.8090   27.7720   52.8680 C   0  0  0  0  0  0  0  0  0  0  0  0
   39.4430   27.8950   50.3940 C   0  0  0  0  0  0  0  0  0  0  0  0
   38.5790   33.2820   59.9340 C   0  0  0  0  0  0  0  0  0  0  0  0
   36.3330   34.1860   59.1900 C   0  0  0  0  0  0  0  0  0  0  0  0
   38.2700   31.9160   55.5270 C   0  0  0  0  0  0  0  0  0  0  0  0
   38.9230   36.1360   62.2460 C   0  0  0  0  0  0  0  0  0  0  0  0
   35.6040   32.2330   60.6500 C   0  0  0  0  0  0  0  0  0  0  0  0
   38.1320   30.2980   57.9870 C   0  0  0  0  0  0  0  0  0  0  0  0
   37.8560   34.3990   59.1650 O   0  0  0  0  0  0  0  0  0  0  0  0
   34.9110   31.9020   61.8930 O   0  0  0  0  0  0  0  0  0  0  0  0
   39.7020   31.2180   52.9570 F   0  0  0  0  0  0  0  0  0  0  0  0
   38.6200   31.7340   58.0030 N   0  0  0  0  0  0  0  0  0  0  0  0
   39.1980   28.9580   53.4600 N   0  0  0  0  0  0  0  0  0  0  0  0
   38.9430   27.4090   51.5330 C   0  0  0  0  0  0  0  0  0  0  0  0
   39.4600   27.2690   49.2670 F   0  0  0  0  0  0  0  0  0  0  0  0
   38.8360   32.1510   59.4120 C   0  0  0  0  0  0  0  0  0  0  0  0
  1 31  1  0
  3  2  1  0
  3 15  1  0
  5 12  1  0
  5 13  1  0
  6  4  1  0
  7 14  1  0
  7 16  1  0
  8 26  1  0
  8  2  1  0
  9 10  1  0
 10 21  2  0
 10 17  1  0
 11 30  1  0
 11 32  1  0
 13 27  1  0
 15 25  1  0
 15 14  1  0
 17 11  2  0
 18 16  1  0
 20 32  1  0
 20 19  1  0
 21 33  1  0
 22 35  1  0
 22  3  1  0
 23  6  1  0
 23  8  1  0
 24  5  1  0
 24  1  1  0
 25 18  1  0
 26 29  1  0
 27 31  1  0
 28 23  1  0
 28 22  1  0
 31 35  1  0
 32 12  1  0
 33 20  2  0
 34 21  1  0
M  END
$$$$

     RDKit          3D

 32 34  0  0  0  0  0  0  0  0999 V2000
   36.4870   36.7190   59.5670 C   0  0  0  0  0  0  0  0  0  0  0  0
   38.7050   35.6550   60.9220 C   0  0  0  0  0  0  0  0  0  0  0  0
   39.0210   27.7520   52.2410 C   0  0  0  0  0  0  0  0  0  0  0  0
   37.6530   31.0710   59.4610 C   0  0  0  0  0  0  0  0  0  0  0  0
   38.0280   28.7480   58.4070 C   0  0  0  0  0  0  0  0  0  0  0  0
   37.4230   31.4660   54.6000 O   0  0  0  0  0  0  0  0  0  0  0  0
   37.8580   34.8800   60.1130 N   0  0  0  0  0  0  0  0  0  0  0  0
   38.6970   29.6490   54.1220 C   0  0  0  0  0  0  0  0  0  0  0  0
   37.2090   38.7560   60.2590 O   0  0  0  0  0  0  0  0  0  0  0  0
   39.1800   29.9680   52.9380 C   0  0  0  0  0  0  0  0  0  0  0  0
   38.5740   28.2040   54.5650 C   0  0  0  0  0  0  0  0  0  0  0  0
   39.8920   28.7360   57.3590 C   0  0  0  0  0  0  0  0  0  0  0  0
   35.8750   34.5270   58.9460 O   0  0  0  0  0  0  0  0  0  0  0  0
   38.6250   27.4630   53.3320 C   0  0  0  0  0  0  0  0  0  0  0  0
   36.7380   35.3770   59.5760 C   0  0  0  0  0  0  0  0  0  0  0  0
   37.3950   32.4000   59.7390 C   0  0  0  0  0  0  0  0  0  0  0  0
   38.4870   37.0320   60.9920 C   0  0  0  0  0  0  0  0  0  0  0  0
   40.3950   32.7310   61.2360 C   0  0  0  0  0  0  0  0  0  0  0  0
   41.4180   33.4100   62.1480 C   0  0  0  0  0  0  0  0  0  0  0  0
   40.1450   28.2740   56.0150 C   0  0  0  0  0  0  0  0  0  0  0  0
   39.0580   33.2160   61.4160 C   0  0  0  0  0  0  0  0  0  0  0  0
   39.0950   27.2670   55.6160 N   0  0  0  0  0  0  0  0  0  0  0  0
   38.4020   26.9100   56.8350 C   0  0  0  0  0  0  0  0  0  0  0  0
   39.3190   29.0240   51.9300 C   0  0  0  0  0  0  0  0  0  0  0  0
   39.4610   31.5390   55.5360 C   0  0  0  0  0  0  0  0  0  0  0  0
   37.8510   29.7720   59.1990 C   0  0  0  0  0  0  0  0  0  0  0  0
   38.2930   33.4670   60.0310 C   0  0  0  0  0  0  0  0  0  0  0  0
   39.5090   26.8510   58.8310 C   0  0  0  0  0  0  0  0  0  0  0  0
   40.2720   31.4370   61.6680 C   0  0  0  0  0  0  0  0  0  0  0  0
   37.3640   37.5620   60.3150 C   0  0  0  0  0  0  0  0  0  0  0  0
   38.4810   30.8640   54.7780 N   0  0  0  0  0  0  0  0  0  0  0  0
   38.9040   27.7810   57.9490 C   0  0  0  0  0  0  0  0  0  0  0  0
  1 15  1  0
  1 30  1  0
  2 17  2  0
  3 14  1  0
  4 16  2  0
  5 26  1  0
  6 31  1  0
  7  2  1  0
  8 11  1  0
  8 31  1  0
  9 30  2  0
 10  8  2  0
 11 22  1  0
 12 32  1  0
 13 15  2  0
 14 11  2  0
 15  7  1  0
 18 21  1  0
 18 29  1  0
 18 19  1  0
 20 12  1  0
 22 20  1  0
 22 23  1  0
 23 32  1  0
 24  3  2  0
 24 10  1  0
 26  4  2  0
 27 16  1  0
 27  7  1  0
 27 21  1  0
 30 17  1  0
 31 25  1  0
 32  5  1  0
 32 28  1  0
M  END
$$$$

     RDKit          3D

 18 19  0  0  0  0  0  0  0  0999 V2000
   39.5960   28.5360   50.2780 C   0  0  0  0  0  0  0  0  0  0  0  0
   40.3670   29.6090   50.2550 C   0  0  0  0  0  0  0  0  0  0  0  0
   40.4340   30.5480   51.1700 C   0  0  0  0  0  0  0  0  0  0  0  0
   39.0340   29.2620   55.7510 N   0  0  0  0  0  0  0  0  0  0  0  0
   39.0560   27.7140   51.3360 C   0  0  0  0  0  0  0  0  0  0  0  0
   39.4570   29.6940   53.5390 C   0  0  0  0  0  0  0  0  0  0  0  0
   39.3940   27.9750   49.0180 F   0  0  0  0  0  0  0  0  0  0  0  0
   39.0720   30.2080   54.7100 O   0  0  0  0  0  0  0  0  0  0  0  0
   38.3500   26.7180   50.8060 F   0  0  0  0  0  0  0  0  0  0  0  0
   39.8150   25.7830   55.0400 C   0  0  0  0  0  0  0  0  0  0  0  0
   39.0380   28.0920   55.1190 C   0  0  0  0  0  0  0  0  0  0  0  0
   38.7070   27.6540   52.6410 C   0  0  0  0  0  0  0  0  0  0  0  0
   39.3040   28.4100   53.7580 N   0  0  0  0  0  0  0  0  0  0  0  0
   38.1220   26.5920   56.7070 C   0  0  0  0  0  0  0  0  0  0  0  0
   39.7660   30.5330   52.4460 C   0  0  0  0  0  0  0  0  0  0  0  0
   38.6390   26.6420   55.3420 C   0  0  0  0  0  0  0  0  0  0  0  0
   37.2920   28.1190   52.8390 O   0  0  0  0  0  0  0  0  0  0  0  0
   41.1260   29.5950   49.0830 F   0  0  0  0  0  0  0  0  0  0  0  0
  1  7  1  0
  1  5  1  0
  2  1  1  0
  2  3  2  0
  3 15  1  0
  5  9  1  0
  5 12  1  0
  6 15  1  0
  6 13  1  0
  6  8  1  0
  8  4  1  0
 10 16  1  0
 11 16  1  0
 11  4  1  0
 12 17  1  0
 12 13  1  0
 13 11  1  0
 16 14  1  0
 18  2  1  0
M  END
$$$$

     RDKit          3D

 49 53  0  0  0  0  0  0  0  0999 V2000
   37.6630   36.8160   60.1150 C   0  0  0  0  0  0  0  0  0  0  0  0
   38.5620   30.4700   57.6670 C   0  0  0  0  0  0  0  0  0  0  0  0
   40.8800   33.1360   64.1360 C   0  0  0  0  0  0  0  0  0  0  0  0
   38.5320   25.0450   57.0180 C   0  0  0  0  0  0  0  0  0  0  0  0
   40.3670   30.8680   48.8780 C   0  0  0  0  0  0  0  0  0  0  0  0
   39.6010   33.2910   47.4570 C   0  0  0  0  0  0  0  0  0  0  0  0
   39.6980   31.0750   63.8650 C   0  0  0  0  0  0  0  0  0  0  0  0
   40.3320   28.1860   58.3300 S   0  0  0  0  0  0  0  0  0  0  0  0
   38.7340   30.4000   58.9600 C   0  0  0  0  0  0  0  0  0  0  0  0
   36.6820   35.8690   59.5760 C   0  0  0  0  0  0  0  0  0  0  0  0
   38.5200   34.0090   60.7350 C   0  0  0  0  0  0  0  0  0  0  0  0
   37.2110   33.6010   60.4970 C   0  0  0  0  0  0  0  0  0  0  0  0
   40.9970   29.2230   49.0720 C   0  0  0  0  0  0  0  0  0  0  0  0
   38.5790   38.6130   61.0750 C   0  0  0  0  0  0  0  0  0  0  0  0
   38.3480   29.7370   54.5370 C   0  0  0  0  0  0  0  0  0  0  0  0
   38.7200   35.1360   61.4140 C   0  0  0  0  0  0  0  0  0  0  0  0
   36.7260   32.4460   60.9450 C   0  0  0  0  0  0  0  0  0  0  0  0
   39.3970   27.4510   50.5470 O   0  0  0  0  0  0  0  0  0  0  0  0
   38.9910   30.3130   61.5150 C   0  0  0  0  0  0  0  0  0  0  0  0
   37.6800   38.2830   60.1330 N   0  0  0  0  0  0  0  0  0  0  0  0
   40.3720   31.9520   64.6910 C   0  0  0  0  0  0  0  0  0  0  0  0
   39.7290   31.2540   62.4400 C   0  0  0  0  0  0  0  0  0  0  0  0
   41.0160   29.6080   48.7020 C   0  0  0  0  0  0  0  0  0  0  0  0
   39.9570   37.7920   62.7500 C   0  0  0  0  0  0  0  0  0  0  0  0
   36.4560   34.5750   59.7810 C   0  0  0  0  0  0  0  0  0  0  0  0
   38.6660   28.5900   55.7530 C   0  0  0  0  0  0  0  0  0  0  0  0
   39.3930   31.7000   47.9670 C   0  0  0  0  0  0  0  0  0  0  0  0
   37.7360   28.7330   53.4970 C   0  0  0  0  0  0  0  0  0  0  0  0
   37.8110   31.2190   60.8500 C   0  0  0  0  0  0  0  0  0  0  0  0
   37.4910   30.8320   59.4670 C   0  0  0  0  0  0  0  0  0  0  0  0
   40.3730   25.8940   55.6890 C   0  0  0  0  0  0  0  0  0  0  0  0
   38.4780   28.3230   52.4890 C   0  0  0  0  0  0  0  0  0  0  0  0
   38.4000   36.3730   61.1010 N   0  0  0  0  0  0  0  0  0  0  0  0
   40.3520   32.2970   61.8770 C   0  0  0  0  0  0  0  0  0  0  0  0
   39.0400   37.5670   61.6700 C   0  0  0  0  0  0  0  0  0  0  0  0
   39.4350   30.5620   53.8720 C   0  0  0  0  0  0  0  0  0  0  0  0
   39.1650   30.9750   47.0650 O   0  0  0  0  0  0  0  0  0  0  0  0
   37.5470   30.9010   55.3000 C   0  0  0  0  0  0  0  0  0  0  0  0
   38.1560   27.1690   55.7920 C   0  0  0  0  0  0  0  0  0  0  0  0
   39.2540   26.3620   56.5460 C   0  0  0  0  0  0  0  0  0  0  0  0
   39.1230   29.0180   59.4440 C   0  0  0  0  0  0  0  0  0  0  0  0
   37.8970   31.0910   56.8160 N   0  0  0  0  0  0  0  0  0  0  0  0
   39.0050   29.2770   51.5330 C   0  0  0  0  0  0  0  0  0  0  0  0
   40.0390   26.8590   57.9050 C   0  0  0  0  0  0  0  0  0  0  0  0
   40.9750   33.2480   62.7520 C   0  0  0  0  0  0  0  0  0  0  0  0
   36.2970   29.9270   59.2320 C   0  0  0  0  0  0  0  0  0  0  0  0
   41.9490   28.5830   49.2560 C   0  0  0  0  0  0  0  0  0  0  0  0
   39.9530   28.7700   50.5460 C   0  0  0  0  0  0  0  0  0  0  0  0
   39.7210   29.1330   60.8800 C   0  0  0  0  0  0  0  0  0  0  0  0
  1 20  2  0
  1 33  1  0
  3 21  1  0
  7 21  2  0
  8 41  1  0
  9  2  1  0
  9 41  1  0
  9 30  1  0
 10 25  2  0
 10  1  1  0
 11 16  1  0
 12 11  2  0
 12 17  1  0
 13 47  2  0
 13 48  1  0
 14 35  2  0
 15 36  1  0
 15 38  1  0
 15 26  1  0
 19 22  1  0
 20 14  1  0
 22  7  1  0
 23  5  1  0
 23 13  1  0
 25 12  1  0
 26 39  1  0
 27  6  1  0
 27  5  1  0
 28 15  1  0
 29 17  1  0
 29 19  1  0
 30 46  1  0
 30 29  1  0
 31 40  1  0
 32 28  1  0
 33 16  1  0
 33 35  1  0
 34 22  2  0
 34 45  1  0
 35 24  1  0
 37 27  1  0
 38 42  1  0
 39 40  1  0
 40  4  1  0
 40 44  1  0
 41 49  1  0
 42  2  2  0
 43 32  2  3
 44  8  1  0
 45  3  2  0
 48 18  1  0
 48 43  1  0
 49 19  1  0
M  END
$$$$

     RDKit          3D

 21 23  0  0  0  0  0  0  0  0999 V2000
   38.7220   31.9510   56.3840 C   0  0  0  0  0  0  0  0  0  0  0  0
   39.4530   27.7520   50.0560 N   0  0  0  0  0  0  0  0  0  0  0  0
   36.1140   29.9000   59.1620 O   0  0  0  0  0  0  0  0  0  0  0  0
   40.2570   28.6800   49.2500 C   0  0  0  0  0  0  0  0  0  0  0  0
   38.2820   27.6510   53.3870 O   0  0  0  0  0  0  0  0  0  0  0  0
   38.3800   33.3560   56.6020 O   0  0  0  0  0  0  0  0  0  0  0  0
   38.5580   29.7580   54.9320 S   0  0  0  0  0  0  0  0  0  0  0  0
   37.4450   29.1910   56.0620 C   0  0  0  0  0  0  0  0  0  0  0  0
   37.3740   30.0020   57.3350 C   0  0  0  0  0  0  0  0  0  0  0  0
   38.3730   31.0630   57.6150 C   0  0  0  0  0  0  0  0  0  0  0  0
   37.0770   29.1140   58.5670 C   0  0  0  0  0  0  0  0  0  0  0  0
   38.6240   27.0160   52.1300 C   0  0  0  0  0  0  0  0  0  0  0  0
   37.8450   31.9960   58.6740 O   0  0  0  0  0  0  0  0  0  0  0  0
   39.2770   29.1720   52.0220 C   0  0  0  0  0  0  0  0  0  0  0  0
   38.1980   31.4730   55.0230 C   0  0  0  0  0  0  0  0  0  0  0  0
   39.1500   28.0050   51.2930 C   0  0  0  0  0  0  0  0  0  0  0  0
   40.5300   27.9170   47.9530 O   0  0  0  0  0  0  0  0  0  0  0  0
   39.9160   30.2990   51.3450 C   0  0  0  0  0  0  0  0  0  0  0  0
   39.8930   29.6460   55.5120 O   0  0  0  0  0  0  0  0  0  0  0  0
   38.7260   29.1410   53.3140 C   0  0  0  0  0  0  0  0  0  0  0  0
   40.3630   30.0710   49.9310 C   0  0  0  0  0  0  0  0  0  0  0  0
  1  6  1  0
  1 10  1  0
  2 16  1  0
  4 21  1  0
  4  2  1  0
  7 15  1  0
  7 19  1  0
  7  8  1  0
  8  9  1  0
  9 10  1  0
  9 11  1  0
 10 13  1  0
 11  3  1  0
 12  5  1  0
 14 20  2  0
 15  1  1  0
 16 14  1  0
 16 12  2  0
 17  4  2  0
 18 14  1  0
 20  5  1  0
 20  7  1  0
 21 18  2  0
M  END
$$$$

     RDKit          3D

 44 47  0  0  0  0  0  0  0  0999 V2000
   38.3720   31.5250   56.4240 C   0  0  0  0  0  0  0  0  0  0  0  0
   36.7680   31.4400   59.8810 C   0  0  0  0  0  0  0  0  0  0  0  0
   37.4490   24.6440   56.1530 C   0  0  0  0  0  0  0  0  0  0  0  0
   38.7840   31.7650   47.8770 C   0  0  0  0  0  0  0  0  0  0  0  0
   38.6650   27.1000   55.7930 C   0  0  0  0  0  0  0  0  0  0  0  0
   38.8930   30.5440   54.1710 N   0  0  0  0  0  0  0  0  0  0  0  0
   40.0910   32.1190   62.2200 C   0  0  0  0  0  0  0  0  0  0  0  0
   40.0020   36.1470   61.5370 O   0  0  0  0  0  0  0  0  0  0  0  0
   39.8310   30.0760   50.6560 C   0  0  0  0  0  0  0  0  0  0  0  0
   39.3090   28.4670   53.2750 O   0  0  0  0  0  0  0  0  0  0  0  0
   40.2530   33.4820   62.1940 C   0  0  0  0  0  0  0  0  0  0  0  0
   40.3420   28.8970   48.6270 C   0  0  0  0  0  0  0  0  0  0  0  0
   37.6470   26.7470   55.1260 C   0  0  0  0  0  0  0  0  0  0  0  0
   39.3040   24.0940   57.4230 O   0  0  0  0  0  0  0  0  0  0  0  0
   39.1980   34.1060   61.4010 C   0  0  0  0  0  0  0  0  0  0  0  0
   35.3900   31.3110   59.9940 C   0  0  0  0  0  0  0  0  0  0  0  0
   39.7390   30.3860   46.5900 C   0  0  0  0  0  0  0  0  0  0  0  0
   37.6510   29.9910   58.1300 C   0  0  0  0  0  0  0  0  0  0  0  0
   39.1760   31.0570   52.6730 C   0  0  0  0  0  0  0  0  0  0  0  0
   39.2330   29.1170   54.1810 C   0  0  0  0  0  0  0  0  0  0  0  0
   38.7600   31.7480   61.5560 O   0  0  0  0  0  0  0  0  0  0  0  0
   40.0760   28.9800   47.2240 C   0  0  0  0  0  0  0  0  0  0  0  0
   39.3180   28.5490   55.6130 C   0  0  0  0  0  0  0  0  0  0  0  0
   39.6370   30.7230   47.0100 C   0  0  0  0  0  0  0  0  0  0  0  0
   38.3230   24.6960   57.0410 C   0  0  0  0  0  0  0  0  0  0  0  0
   38.9460   31.5440   49.2650 C   0  0  0  0  0  0  0  0  0  0  0  0
   38.2420   31.6740   54.7970 C   0  0  0  0  0  0  0  0  0  0  0  0
   37.5580   37.8370   60.6050 C   0  0  0  0  0  0  0  0  0  0  0  0
   38.5990   32.9340   56.6590 C   0  0  0  0  0  0  0  0  0  0  0  0
   36.6640   34.4520   59.6650 C   0  0  0  0  0  0  0  0  0  0  0  0
   35.7650   34.6830   58.9090 O   0  0  0  0  0  0  0  0  0  0  0  0
   38.6250   35.6800   61.2180 C   0  0  0  0  0  0  0  0  0  0  0  0
   39.9870   30.2390   49.4980 C   0  0  0  0  0  0  0  0  0  0  0  0
   37.3830   30.1360   59.2500 C   0  0  0  0  0  0  0  0  0  0  0  0
   37.0860   25.6090   55.1380 C   0  0  0  0  0  0  0  0  0  0  0  0
   38.1410   37.9380   61.5950 N   0  0  0  0  0  0  0  0  0  0  0  0
   41.4430   34.0330   62.8010 C   0  0  0  0  0  0  0  0  0  0  0  0
   37.3440   30.6480   56.9330 O   0  0  0  0  0  0  0  0  0  0  0  0
   40.0850   30.4510   52.0780 C   0  0  0  0  0  0  0  0  0  0  0  0
   37.2370   33.1080   60.0040 C   0  0  0  0  0  0  0  0  0  0  0  0
   36.7140   36.8260   59.9370 S   0  0  0  0  0  0  0  0  0  0  0  0
   38.2810   33.1130   60.8280 C   0  0  0  0  0  0  0  0  0  0  0  0
   37.2290   35.5830   60.4740 C   0  0  0  0  0  0  0  0  0  0  0  0
   38.9450   26.2620   56.7550 C   0  0  0  0  0  0  0  0  0  0  0  0
  1 29  1  0
  1 38  1  0
  2 16  1  0
  2 40  1  0
  3 25  1  0
  4 26  1  0
  5 44  1  0
  6 20  1  0
  6 27  1  0
  9 39  1  0
 10 20  2  0
 11  7  1  0
 11 37  1  0
 12 33  1  0
 13 35  1  0
 13  5  2  0
 15 42  1  0
 15 11  1  0
 17 24  1  0
 17 22  1  0
 18 34  1  0
 19  6  1  0
 20 23  1  0
 21  7  1  0
 22 12  2  0
 23  5  1  0
 24  4  1  0
 25 14  1  0
 26 33  1  0
 27  1  1  0
 28 36  2  0
 30 40  1  0
 30 43  1  0
 31 30  2  0
 32 15  1  0
 32  8  1  0
 33  9  1  0
 34  2  1  0
 35  3  2  0
 38 18  1  0
 39 19  1  0
 40 42  2  0
 41 28  1  0
 42 21  1  0
 43 41  1  0
 43 32  1  0
 44 25  2  0
M  END
$$$$

     RDKit          3D

 37 42  0  0  0  0  0  0  0  0999 V2000
   39.1520   27.8860   51.5410 C   0  0  0  0  0  0  0  0  0  0  0  0
   36.7740   36.6640   60.8570 C   0  0  0  0  0  0  0  0  0  0  0  0
   39.3290   29.1770   59.7460 C   0  0  0  0  0  0  0  0  0  0  0  0
   36.0130   35.4110   60.4870 C   0  0  0  0  0  0  0  0  0  0  0  0
   41.3490   27.8340   59.8990 C   0  0  0  0  0  0  0  0  0  0  0  0
   39.1810   33.1470   55.7880 C   0  0  0  0  0  0  0  0  0  0  0  0
   38.6810   30.2890   60.2860 C   0  0  0  0  0  0  0  0  0  0  0  0
   37.7180   30.2760   54.6840 C   0  0  0  0  0  0  0  0  0  0  0  0
   37.4550   30.4100   60.7120 N   0  0  0  0  0  0  0  0  0  0  0  0
   37.3330   33.0080   60.5400 C   0  0  0  0  0  0  0  0  0  0  0  0
   40.2810   28.1750   57.7560 C   0  0  0  0  0  0  0  0  0  0  0  0
   35.4410   31.6520   60.9980 O   0  0  0  0  0  0  0  0  0  0  0  0
   38.5360   32.9670   57.0660 C   0  0  0  0  0  0  0  0  0  0  0  0
   40.2160   28.2280   56.2770 C   0  0  0  0  0  0  0  0  0  0  0  0
   40.4050   28.5700   60.5230 C   0  0  0  0  0  0  0  0  0  0  0  0
   39.5800   28.1900   50.2120 C   0  0  0  0  0  0  0  0  0  0  0  0
   36.9280   37.1790   59.5060 O   0  0  0  0  0  0  0  0  0  0  0  0
   39.2460   28.7490   52.5540 C   0  0  0  0  0  0  0  0  0  0  0  0
   36.3900   35.9360   59.1400 C   0  0  0  0  0  0  0  0  0  0  0  0
   39.0690   28.2910   53.8930 C   0  0  0  0  0  0  0  0  0  0  0  0
   41.3640   27.6260   58.4710 C   0  0  0  0  0  0  0  0  0  0  0  0
   37.5890   33.7990   57.3540 N   0  0  0  0  0  0  0  0  0  0  0  0
   39.4020   27.0170   54.3950 C   0  0  0  0  0  0  0  0  0  0  0  0
   40.1910   30.4260   51.0570 C   0  0  0  0  0  0  0  0  0  0  0  0
   36.1400   33.8860   60.5710 C   0  0  0  0  0  0  0  0  0  0  0  0
   38.8220   31.9160   57.7680 O   0  0  0  0  0  0  0  0  0  0  0  0
   40.1440   29.5160   50.0150 C   0  0  0  0  0  0  0  0  0  0  0  0
   39.8840   26.9920   55.7160 C   0  0  0  0  0  0  0  0  0  0  0  0
   39.4950   27.4250   49.1220 O   0  0  0  0  0  0  0  0  0  0  0  0
   38.6050   29.2810   54.8180 C   0  0  0  0  0  0  0  0  0  0  0  0
   38.1420   32.6200   54.8470 C   0  0  0  0  0  0  0  0  0  0  0  0
   39.1180   28.7520   58.3680 C   0  0  0  0  0  0  0  0  0  0  0  0
   39.4800   29.4010   55.9130 O   0  0  0  0  0  0  0  0  0  0  0  0
   39.7220   30.0450   52.3140 C   0  0  0  0  0  0  0  0  0  0  0  0
   37.3820   31.4140   55.4670 C   0  0  0  0  0  0  0  0  0  0  0  0
   36.7760   31.6220   60.7040 C   0  0  0  0  0  0  0  0  0  0  0  0
   35.1360   33.0760   60.8340 C   0  0  0  0  0  0  0  0  0  0  0  0
  1 18  1  0
  2 17  1  0
  3  7  1  0
  3 15  1  0
  4 25  1  0
  4  2  1  0
  5 15  2  0
  6 13  1  0
  7  9  1  0
  8 30  2  3
  8 35  1  0
 10 25  1  0
 10 36  2  0
 11 32  1  0
 11 21  2  0
 13 22  1  0
 13 26  2  0
 14 11  1  0
 16  1  2  0
 19 17  1  0
 19  4  1  0
 19  2  1  0
 20 18  1  0
 20 23  1  0
 20 30  1  0
 21  5  1  0
 23 28  2  0
 24 34  1  0
 25 37  2  0
 27 16  1  0
 27 24  2  0
 28 14  1  0
 29 16  1  0
 30 33  1  0
 31 35  1  0
 31  6  1  0
 32  3  2  0
 33 14  1  0
 34 18  2  0
 36  9  1  0
 36 12  1  0
 37 12  1  0
M  END
$$$$

     RDKit          3D

 37 40  0  0  0  0  0  0  0  0999 V2000
   37.6180   32.6860   59.9230 N   0  0  0  0  0  0  0  0  0  0  0  0
   38.2380   27.5530   56.9500 C   0  0  0  0  0  0  0  0  0  0  0  0
   38.6810   28.0710   50.0210 F   0  0  0  0  0  0  0  0  0  0  0  0
   40.3260   27.9910   55.9010 C   0  0  0  0  0  0  0  0  0  0  0  0
   37.9520   32.2960   61.4470 P   0  0  0  0  0  0  0  0  0  0  0  0
   37.6260   28.7300   53.8260 C   0  0  0  0  0  0  0  0  0  0  0  0
   40.7670   27.7160   49.9840 F   0  0  0  0  0  0  0  0  0  0  0  0
   38.2380   28.2680   58.3490 C   0  0  0  0  0  0  0  0  0  0  0  0
   38.6350   35.5310   61.0920 C   0  0  0  0  0  0  0  0  0  0  0  0
   40.5680   29.7870   50.0180 O   0  0  0  0  0  0  0  0  0  0  0  0
   37.1820   30.1150   56.9250 C   0  0  0  0  0  0  0  0  0  0  0  0
   39.9110   30.9840   49.8680 C   0  0  0  0  0  0  0  0  0  0  0  0
   38.4690   30.0330   56.2490 C   0  0  0  0  0  0  0  0  0  0  0  0
   38.1230   31.0010   62.2740 O   0  0  0  0  0  0  0  0  0  0  0  0
   37.8430   35.2100   59.9980 C   0  0  0  0  0  0  0  0  0  0  0  0
   36.0410   32.1770   62.0260 O   0  0  0  0  0  0  0  0  0  0  0  0
   37.0600   36.1800   59.5330 C   0  0  0  0  0  0  0  0  0  0  0  0
   38.0090   27.3650   53.2380 C   0  0  0  0  0  0  0  0  0  0  0  0
   38.8590   29.4060   54.5920 C   0  0  0  0  0  0  0  0  0  0  0  0
   38.5640   36.7590   61.6880 C   0  0  0  0  0  0  0  0  0  0  0  0
   38.8810   28.5310   55.8550 C   0  0  0  0  0  0  0  0  0  0  0  0
   37.1970   33.9360   57.9920 O   0  0  0  0  0  0  0  0  0  0  0  0
   39.5750   30.3950   53.9370 C   0  0  0  0  0  0  0  0  0  0  0  0
   39.9200   28.5800   50.3980 C   0  0  0  0  0  0  0  0  0  0  0  0
   37.0020   37.4660   60.0670 N   0  0  0  0  0  0  0  0  0  0  0  0
   39.5980   28.9260   51.8610 C   0  0  0  0  0  0  0  0  0  0  0  0
   37.7260   37.7750   61.0920 C   0  0  0  0  0  0  0  0  0  0  0  0
   39.2980   27.6480   52.4870 C   0  0  0  0  0  0  0  0  0  0  0  0
   39.5430   30.1980   52.3700 C   0  0  0  0  0  0  0  0  0  0  0  0
   40.2240   26.7470   52.6010 O   0  0  0  0  0  0  0  0  0  0  0  0
   37.8740   31.5050   59.2490 C   0  0  0  0  0  0  0  0  0  0  0  0
   39.3030   31.1510   48.4740 C   0  0  0  0  0  0  0  0  0  0  0  0
   39.7480   32.4770   61.3540 O   0  0  0  0  0  0  0  0  0  0  0  0
   37.0350   30.2250   59.3690 C   0  0  0  0  0  0  0  0  0  0  0  0
   37.6570   29.5740   58.3300 C   0  0  0  0  0  0  0  0  0  0  0  0
   37.9910   33.9210   59.2180 C   0  0  0  0  0  0  0  0  0  0  0  0
   39.4070   37.1150   62.8880 C   0  0  0  0  0  0  0  0  0  0  0  0
  1  5  1  0
  2  8  1  0
  3 24  1  0
  5 16  1  0
  5 14  1  0
  7 24  1  0
  9 20  1  0
 10 24  1  0
 11 35  1  0
 12 10  1  0
 13 11  1  0
 15  9  2  0
 17 15  1  0
 17 25  2  0
 18  6  1  0
 19  6  1  0
 19 21  1  0
 19 13  1  0
 20 37  1  0
 21  4  1  0
 21 13  1  0
 21  2  1  0
 23 19  1  0
 25 27  1  0
 26 24  1  0
 26 29  1  0
 26 28  1  0
 27 20  2  0
 28 30  1  0
 28 18  1  0
 29 23  1  0
 31 34  1  0
 31  1  1  0
 32 12  1  0
 33  5  2  0
 35  8  1  0
 35 34  1  0
 36 22  1  0
 36  1  1  0
 36 15  1  0
M  END
$$$$

     RDKit          3D

 33 37  0  0  0  0  0  0  0  0999 V2000
   38.4080   30.2580   55.5790 C   0  0  0  0  0  0  0  0  0  0  0  0
   39.3130   26.7070   54.1520 C   0  0  0  0  0  0  0  0  0  0  0  0
   39.9820   30.3160   51.4450 C   0  0  0  0  0  0  0  0  0  0  0  0
   37.4740   30.4260   56.5970 N   0  0  0  0  0  0  0  0  0  0  0  0
   39.7670   28.8420   49.6130 C   0  0  0  0  0  0  0  0  0  0  0  0
   39.4400   32.5010   61.9130 C   0  0  0  0  0  0  0  0  0  0  0  0
   36.9950   34.0420   59.6960 C   0  0  0  0  0  0  0  0  0  0  0  0
   39.5290   27.7340   50.4830 C   0  0  0  0  0  0  0  0  0  0  0  0
   38.9740   31.4890   55.0460 C   0  0  0  0  0  0  0  0  0  0  0  0
   40.4950   32.9320   62.7770 C   0  0  0  0  0  0  0  0  0  0  0  0
   40.7830   34.9940   61.4580 C   0  0  0  0  0  0  0  0  0  0  0  0
   39.1630   28.9700   53.5480 N   0  0  0  0  0  0  0  0  0  0  0  0
   39.5100   30.1780   52.7060 C   0  0  0  0  0  0  0  0  0  0  0  0
   39.7660   28.7420   48.3590 O   0  0  0  0  0  0  0  0  0  0  0  0
   36.3430   29.2000   58.9480 C   0  0  0  0  0  0  0  0  0  0  0  0
   40.0570   30.1730   50.1450 C   0  0  0  0  0  0  0  0  0  0  0  0
   34.8480   35.4450   58.9360 C   0  0  0  0  0  0  0  0  0  0  0  0
   37.9420   32.8720   59.8370 C   0  0  0  0  0  0  0  0  0  0  0  0
   37.5910   30.0300   59.1730 C   0  0  0  0  0  0  0  0  0  0  0  0
   39.3630   27.5840   51.7710 C   0  0  0  0  0  0  0  0  0  0  0  0
   38.1050   30.7000   57.8780 C   0  0  0  0  0  0  0  0  0  0  0  0
   39.0750   33.3450   60.8170 C   0  0  0  0  0  0  0  0  0  0  0  0
   39.3580   27.6760   53.1570 C   0  0  0  0  0  0  0  0  0  0  0  0
   39.7450   34.5510   60.5580 C   0  0  0  0  0  0  0  0  0  0  0  0
   38.6480   27.3840   55.5880 S   0  0  0  0  0  0  0  0  0  0  0  0
   34.8290   34.1460   59.4270 N   0  0  0  0  0  0  0  0  0  0  0  0
   37.5380   31.2310   60.3960 S   0  0  0  0  0  0  0  0  0  0  0  0
   37.1300   35.4340   59.2970 C   0  0  0  0  0  0  0  0  0  0  0  0
   36.0830   36.1090   59.0530 C   0  0  0  0  0  0  0  0  0  0  0  0
   38.6060   28.9740   54.7820 C   0  0  0  0  0  0  0  0  0  0  0  0
   35.7390   33.5620   59.9510 N   0  0  0  0  0  0  0  0  0  0  0  0
   41.1700   34.1480   62.4190 C   0  0  0  0  0  0  0  0  0  0  0  0
   39.4290   31.4540   53.5370 C   0  0  0  0  0  0  0  0  0  0  0  0
  1  4  1  0
  2 25  1  0
  3 13  2  0
  4 21  1  0
  5 16  1  0
  5  8  1  0
  6 10  1  0
  7 18  1  0
  7 31  1  0
  8 20  2  0
  9  1  1  0
 11 32  1  0
 12 30  1  0
 13 33  1  0
 13 12  1  0
 14  5  2  0
 16  3  2  0
 17 29  2  0
 17 26  1  0
 18 27  1  0
 18 22  1  0
 19 15  1  0
 19 27  1  0
 20 23  2  0
 21 19  1  0
 22  6  2  0
 23 12  1  0
 23  2  1  0
 24 22  1  0
 24 11  2  0
 26 31  2  0
 28  7  2  0
 29 28  1  0
 30  1  1  0
 30 25  1  0
 32 10  2  0
 33  9  2  0
M  END
$$$$

     RDKit          3D

 34 38  0  0  0  0  0  0  0  0999 V2000
   40.3850   33.5240   62.0170 C   0  0  0  0  0  0  0  0  0  0  0  0
   37.7920   31.1580   54.9700 C   0  0  0  0  0  0  0  0  0  0  0  0
   39.5680   29.0490   51.5400 C   0  0  0  0  0  0  0  0  0  0  0  0
   37.8360   30.4050   58.2200 C   0  0  0  0  0  0  0  0  0  0  0  0
   39.4680   29.6790   55.4040 C   0  0  0  0  0  0  0  0  0  0  0  0
   36.6350   31.1800   54.6790 O   0  0  0  0  0  0  0  0  0  0  0  0
   40.3790   30.4340   51.0190 C   0  0  0  0  0  0  0  0  0  0  0  0
   38.9920   30.6360   54.3820 C   0  0  0  0  0  0  0  0  0  0  0  0
   38.5880   30.6120   56.9520 N   0  0  0  0  0  0  0  0  0  0  0  0
   37.0780   27.4810   51.9640 O   0  0  0  0  0  0  0  0  0  0  0  0
   36.6430   37.0080   59.0910 O   0  0  0  0  0  0  0  0  0  0  0  0
   40.4160   29.2700   48.7910 C   0  0  0  0  0  0  0  0  0  0  0  0
   38.2750   27.2020   51.4680 C   0  0  0  0  0  0  0  0  0  0  0  0
   38.9410   28.2230   50.6800 C   0  0  0  0  0  0  0  0  0  0  0  0
   38.8940   29.2420   54.0310 C   0  0  0  0  0  0  0  0  0  0  0  0
   38.2550   35.3070   61.4510 C   0  0  0  0  0  0  0  0  0  0  0  0
   39.0560   31.9770   59.8430 O   0  0  0  0  0  0  0  0  0  0  0  0
   38.6140   33.1740   56.2840 C   0  0  0  0  0  0  0  0  0  0  0  0
   40.3520   25.9890   54.6190 C   0  0  0  0  0  0  0  0  0  0  0  0
   39.6200   28.5230   52.8390 C   0  0  0  0  0  0  0  0  0  0  0  0
   39.3670   33.0660   61.1550 C   0  0  0  0  0  0  0  0  0  0  0  0
   40.5690   34.9870   62.1780 C   0  0  0  0  0  0  0  0  0  0  0  0
   39.3560   27.1420   52.5130 C   0  0  0  0  0  0  0  0  0  0  0  0
   39.3830   35.9140   61.9310 C   0  0  0  0  0  0  0  0  0  0  0  0
   39.6550   28.1210   49.2060 C   0  0  0  0  0  0  0  0  0  0  0  0
   36.9930   36.0660   61.3320 C   0  0  0  0  0  0  0  0  0  0  0  0
   38.5020   29.2780   56.3430 O   0  0  0  0  0  0  0  0  0  0  0  0
   38.3880   31.7370   56.0900 C   0  0  0  0  0  0  0  0  0  0  0  0
   37.2050   37.1240   60.2630 C   0  0  0  0  0  0  0  0  0  0  0  0
   38.3520   33.9320   60.9340 C   0  0  0  0  0  0  0  0  0  0  0  0
   39.1560   26.1590   53.6650 O   0  0  0  0  0  0  0  0  0  0  0  0
   37.7810   31.5050   59.2090 C   0  0  0  0  0  0  0  0  0  0  0  0
   37.7720   38.1880   60.5880 O   0  0  0  0  0  0  0  0  0  0  0  0
   40.1610   30.4620   49.6420 C   0  0  0  0  0  0  0  0  0  0  0  0
  1 22  1  0
  2 28  1  0
  3  7  1  0
  3 20  1  0
  4 32  1  0
  5 27  1  0
  6  2  2  0
  8  2  1  0
  8  5  1  0
  9  4  1  0
 11 29  2  0
 12 25  1  0
 12 34  1  0
 13 10  1  0
 13 23  1  0
 14 25  1  0
 14 13  1  0
 14  3  1  0
 15 20  1  0
 15  8  1  0
 15  5  1  0
 16 24  1  0
 17 21  1  0
 21  1  2  0
 23 20  1  0
 23 31  1  0
 24 22  2  0
 26 16  1  0
 27  9  1  0
 28 18  1  0
 28  9  1  0
 29 33  1  0
 29 26  1  0
 30 21  1  0
 30 16  2  0
 31 19  1  0
 32 17  1  0
 34  7  1  0
M  END
$$$$

     RDKit          3D

 13 12  0  0  0  0  0  0  0  0999 V2000
   36.9070   35.0050   59.9810 C   0  0  0  0  0  0  0  0  0  0  0  0
   36.9150   34.3220   58.7310 N   0  0  0  0  0  0  0  0  0  0  0  0
   39.5620   29.1150   52.0240 C   0  0  0  0  0  0  0  0  0  0  0  0
   36.3750   34.5170   60.9530 O   0  0  0  0  0  0  0  0  0  0  0  0
   38.4370   32.3560   57.4590 C   0  0  0  0  0  0  0  0  0  0  0  0
   37.6970   36.3340   60.1400 C   0  0  0  0  0  0  0  0  0  0  0  0
   40.0540   29.2250   50.3380 Cl  0  0  0  0  0  0  0  0  0  0  0  0
   39.6580   30.3530   52.9060 C   0  0  0  0  0  0  0  0  0  0  0  0
   38.2400   33.3970   58.5640 C   0  0  0  0  0  0  0  0  0  0  0  0
   38.6870   32.9800   56.1390 C   0  0  0  0  0  0  0  0  0  0  0  0
   37.0320   37.2680   59.2760 N   0  0  0  0  0  0  0  0  0  0  0  0
   39.5260   30.8170   54.6790 S   0  0  0  0  0  0  0  0  0  0  0  0
   38.3360   31.9050   54.9630 C   0  0  0  0  0  0  0  0  0  0  0  0
  1  6  1  0
  1  4  2  0
  2  1  1  0
  3  8  2  3
  5  9  1  0
  7  3  1  0
  8 12  1  0
  9  2  1  0
 10  5  1  0
 11  6  1  0
 12 13  1  0
 13 10  1  0
M  END
$$$$

     RDKit          3D

 10 10  0  0  0  0  0  0  0  0999 V2000
   37.5970   29.9490   56.3620 C   0  0  0  0  0  0  0  0  0  0  0  0
   39.5890   26.5600   52.9780 C   0  0  0  0  0  0  0  0  0  0  0  0
   39.1650   28.8710   53.1190 C   0  0  0  0  0  0  0  0  0  0  0  0
   39.8930   29.1010   50.4290 C   0  0  0  0  0  0  0  0  0  0  0  0
   38.8400   30.9130   54.1380 C   0  0  0  0  0  0  0  0  0  0  0  0
   39.4090   30.2370   53.1300 C   0  0  0  0  0  0  0  0  0  0  0  0
   38.2660   28.4380   54.5220 S   0  0  0  0  0  0  0  0  0  0  0  0
   38.1830   29.9720   54.9900 C   0  0  0  0  0  0  0  0  0  0  0  0
   39.4130   27.9340   51.1460 C   0  0  0  0  0  0  0  0  0  0  0  0
   39.3870   27.8120   52.3460 C   0  0  0  0  0  0  0  0  0  0  0  0
  3  6  2  0
  3  7  1  0
  4  9  1  0
  5  8  2  0
  6  5  1  0
  7  8  1  0
  8  1  1  0
  9 10  1  0
 10  2  1  0
 10  3  1  0
M  END
$$$$

     RDKit          3D

 22 25  0  0  0  0  0  0  0  0999 V2000
   39.8170   30.0760   53.2360 N   0  0  0  0  0  0  0  0  0  0  0  0
   39.3420   28.8320   51.2550 C   0  0  0  0  0  0  0  0  0  0  0  0
   38.1720   30.8120   55.3380 C   0  0  0  0  0  0  0  0  0  0  0  0
   38.5650   28.1020   53.2560 C   0  0  0  0  0  0  0  0  0  0  0  0
   39.9960   29.7860   51.9460 C   0  0  0  0  0  0  0  0  0  0  0  0
   39.4780   28.7460   49.7800 C   0  0  0  0  0  0  0  0  0  0  0  0
   38.3690   27.1240   55.9360 C   0  0  0  0  0  0  0  0  0  0  0  0
   38.3530   28.9740   59.7580 C   0  0  0  0  0  0  0  0  0  0  0  0
   38.5790   27.9790   51.9500 C   0  0  0  0  0  0  0  0  0  0  0  0
   40.1330   29.9700   49.3100 C   0  0  0  0  0  0  0  0  0  0  0  0
   38.9720   27.9870   49.0000 O   0  0  0  0  0  0  0  0  0  0  0  0
   38.5960   27.1800   58.2220 O   0  0  0  0  0  0  0  0  0  0  0  0
   39.0060   29.0260   53.9540 C   0  0  0  0  0  0  0  0  0  0  0  0
   40.9840   30.5920   50.6770 S   0  0  0  0  0  0  0  0  0  0  0  0
   37.9530   29.5830   56.0360 C   0  0  0  0  0  0  0  0  0  0  0  0
   36.8180   30.2970   55.2460 C   0  0  0  0  0  0  0  0  0  0  0  0
   38.4760   28.4480   55.2090 N   0  0  0  0  0  0  0  0  0  0  0  0
   38.3490   25.9220   54.9620 C   0  0  0  0  0  0  0  0  0  0  0  0
   39.8310   30.3680   48.1780 O   0  0  0  0  0  0  0  0  0  0  0  0
   39.3200   26.8480   57.0660 C   0  0  0  0  0  0  0  0  0  0  0  0
   38.2480   28.4360   58.3680 C   0  0  0  0  0  0  0  0  0  0  0  0
   37.9930   29.2060   57.3090 C   0  0  0  0  0  0  0  0  0  0  0  0
  1 13  1  0
  2  5  1  0
  2  9  2  0
  3 15  1  0
  4 13  2  0
  5  1  2  0
  6  2  1  0
  7 18  1  0
  7 20  1  0
  9  4  1  0
 10  6  1  0
 10 14  1  0
 11  6  2  0
 12 21  1  0
 13 17  1  0
 14  5  1  0
 15 22  1  0
 16  3  1  0
 16 15  1  0
 17  7  1  0
 17 15  1  0
 19 10  2  0
 20 12  1  0
 21  8  1  0
 22 21  1  0
M  END
$$$$

     RDKit          3D

 33 35  0  0  0  0  0  0  0  0999 V2000
   39.0660   28.4690   52.6280 C   0  0  0  0  0  0  0  0  0  0  0  0
   36.7450   30.3330   55.0340 C   0  0  0  0  0  0  0  0  0  0  0  0
   37.0670   31.7920   60.3480 O   0  0  0  0  0  0  0  0  0  0  0  0
   38.4030   35.2770   60.5150 C   0  0  0  0  0  0  0  0  0  0  0  0
   39.1220   29.1590   60.5060 Cl  0  0  0  0  0  0  0  0  0  0  0  0
   38.3480   30.8470   58.4940 C   0  0  0  0  0  0  0  0  0  0  0  0
   38.8400   33.0780   59.5290 N   0  0  0  0  0  0  0  0  0  0  0  0
   38.0520   31.9270   59.5180 C   0  0  0  0  0  0  0  0  0  0  0  0
   38.6100   32.1680   56.2360 C   0  0  0  0  0  0  0  0  0  0  0  0
   39.8620   27.3540   58.1270 C   0  0  0  0  0  0  0  0  0  0  0  0
   38.5690   29.0110   56.4280 C   0  0  0  0  0  0  0  0  0  0  0  0
   39.0140   28.6940   57.7890 C   0  0  0  0  0  0  0  0  0  0  0  0
   37.2030   37.9680   60.6440 O   0  0  0  0  0  0  0  0  0  0  0  0
   38.2330   25.5100   55.1790 S   0  0  0  0  0  0  0  0  0  0  0  0
   39.9940   30.2840   51.3660 C   0  0  0  0  0  0  0  0  0  0  0  0
   38.7980   29.5750   58.8830 C   0  0  0  0  0  0  0  0  0  0  0  0
   38.9570   33.8890   60.6880 C   0  0  0  0  0  0  0  0  0  0  0  0
   39.0310   27.6550   51.4180 C   0  0  0  0  0  0  0  0  0  0  0  0
   40.0290   29.4830   50.1950 C   0  0  0  0  0  0  0  0  0  0  0  0
   37.4570   30.0640   56.4130 C   0  0  0  0  0  0  0  0  0  0  0  0
   37.8500   33.2040   56.1280 O   0  0  0  0  0  0  0  0  0  0  0  0
   36.4980   36.8360   59.8170 C   0  0  0  0  0  0  0  0  0  0  0  0
   38.5150   37.8020   61.0680 C   0  0  0  0  0  0  0  0  0  0  0  0
   38.0850   26.4500   53.7510 C   0  0  0  0  0  0  0  0  0  0  0  0
   39.5030   28.1950   50.2090 C   0  0  0  0  0  0  0  0  0  0  0  0
   36.9620   35.3620   60.2200 C   0  0  0  0  0  0  0  0  0  0  0  0
   38.1860   31.1570   57.1140 N   0  0  0  0  0  0  0  0  0  0  0  0
   38.6000   28.1350   55.3850 O   0  0  0  0  0  0  0  0  0  0  0  0
   38.8250   36.3290   61.5900 C   0  0  0  0  0  0  0  0  0  0  0  0
   39.5510   29.8030   52.6770 C   0  0  0  0  0  0  0  0  0  0  0  0
   40.4960   29.9450   48.9390 F   0  0  0  0  0  0  0  0  0  0  0  0
   39.6230   31.9520   55.5240 O   0  0  0  0  0  0  0  0  0  0  0  0
   38.4200   27.9230   53.9660 C   0  0  0  0  0  0  0  0  0  0  0  0
  1 30  1  0
  1 33  1  0
  4 17  1  0
  4 29  1  0
  6 16  2  0
  6  8  1  0
  7 17  1  0
  8  7  1  0
  8  3  2  0
  9 27  1  0
 11 28  1  0
 11 12  1  0
 12 10  1  0
 12 16  1  0
 13 23  1  0
 15 30  2  0
 16  5  1  0
 18  1  2  0
 19 25  2  0
 19 15  1  0
 20  2  1  0
 20 11  1  0
 20 27  1  0
 21  9  1  0
 22 26  1  0
 22 13  1  0
 23 29  1  0
 24 14  1  0
 25 18  1  0
 26  4  1  0
 27  6  1  0
 31 19  1  0
 32  9  2  0
 33 24  1  0
 33 28  1  0
M  END
$$$$

     RDKit          3D

 39 41  0  0  0  0  0  0  0  0999 V2000
   40.2310   30.9530   51.2080 C   0  0  0  0  0  0  0  0  0  0  0  0
   40.3830   28.7460   48.4750 F   0  0  0  0  0  0  0  0  0  0  0  0
   39.1420   28.9690   59.7320 C   0  0  0  0  0  0  0  0  0  0  0  0
   39.7380   30.1250   52.1530 C   0  0  0  0  0  0  0  0  0  0  0  0
   40.2220   35.7370   61.1500 C   0  0  0  0  0  0  0  0  0  0  0  0
   38.5270   30.9890   54.5870 C   0  0  0  0  0  0  0  0  0  0  0  0
   37.4850   31.0850   59.5170 C   0  0  0  0  0  0  0  0  0  0  0  0
   38.0050   31.0040   57.0990 C   0  0  0  0  0  0  0  0  0  0  0  0
   37.5330   32.3800   62.0660 O   0  0  0  0  0  0  0  0  0  0  0  0
   39.7280   37.0160   61.8430 C   0  0  0  0  0  0  0  0  0  0  0  0
   39.4440   26.4540   54.3630 N   0  0  0  0  0  0  0  0  0  0  0  0
   38.0230   28.4930   52.9740 C   0  0  0  0  0  0  0  0  0  0  0  0
   39.8570   29.1020   49.7100 C   0  0  0  0  0  0  0  0  0  0  0  0
   41.2210   31.2220   61.5630 O   0  0  0  0  0  0  0  0  0  0  0  0
   40.4150   30.0300   61.6150 C   0  0  0  0  0  0  0  0  0  0  0  0
   38.9910   28.9230   51.9340 C   0  0  0  0  0  0  0  0  0  0  0  0
   40.6440   31.2080   48.8550 F   0  0  0  0  0  0  0  0  0  0  0  0
   37.7440   28.7420   56.6530 C   0  0  0  0  0  0  0  0  0  0  0  0
   41.0260   24.9450   53.9400 O   0  0  0  0  0  0  0  0  0  0  0  0
   38.2230   32.9640   55.8250 O   0  0  0  0  0  0  0  0  0  0  0  0
   40.2180   30.5230   49.9050 C   0  0  0  0  0  0  0  0  0  0  0  0
   37.5930   36.5890   60.5860 C   0  0  0  0  0  0  0  0  0  0  0  0
   39.3920   33.4120   61.3310 N   0  0  0  0  0  0  0  0  0  0  0  0
   39.6410   27.6140   55.2620 C   0  0  0  0  0  0  0  0  0  0  0  0
   39.0920   28.4810   50.7330 C   0  0  0  0  0  0  0  0  0  0  0  0
   39.2970   30.1250   60.6850 C   0  0  0  0  0  0  0  0  0  0  0  0
   40.3450   25.4540   54.6250 C   0  0  0  0  0  0  0  0  0  0  0  0
   37.8770   35.1850   60.5720 C   0  0  0  0  0  0  0  0  0  0  0  0
   37.0540   30.0070   56.8630 C   0  0  0  0  0  0  0  0  0  0  0  0
   36.5200   37.0660   59.9400 F   0  0  0  0  0  0  0  0  0  0  0  0
   36.6110   34.2900   60.3070 C   0  0  0  0  0  0  0  0  0  0  0  0
   38.1270   29.4730   54.1810 C   0  0  0  0  0  0  0  0  0  0  0  0
   38.4060   32.3840   61.3740 C   0  0  0  0  0  0  0  0  0  0  0  0
   38.0270   31.6330   58.2910 N   0  0  0  0  0  0  0  0  0  0  0  0
   38.4650   31.2880   60.6480 C   0  0  0  0  0  0  0  0  0  0  0  0
   39.1420   34.7480   60.9760 C   0  0  0  0  0  0  0  0  0  0  0  0
   38.5050   37.4950   61.0630 C   0  0  0  0  0  0  0  0  0  0  0  0
   38.7460   31.7230   55.9540 C   0  0  0  0  0  0  0  0  0  0  0  0
   38.5750   28.6090   55.3520 N   0  0  0  0  0  0  0  0  0  0  0  0
  1  4  1  0
  2 13  1  0
  3 26  1  0
  5 10  1  0
  6 38  1  0
  7 35  1  0
  8 34  1  0
 11 27  1  0
 11 24  1  0
 13 21  1  0
 13 25  2  0
 14 15  1  0
 16  4  2  0
 16 12  1  0
 17 21  1  0
 18 29  1  0
 19 27  2  0
 21  1  2  0
 22 37  2  0
 23 33  1  0
 24 39  1  0
 25 16  1  0
 26 15  1  0
 28 22  1  0
 28 36  2  0
 29  8  1  0
 30 22  1  0
 31 28  1  0
 32 12  1  0
 32  6  1  0
 32 39  1  0
 33  9  2  0
 34  7  1  0
 35 26  2  3
 35 33  1  0
 36  5  1  0
 36 23  1  0
 37 10  1  0
 38 20  1  0
 38  8  1  0
 39 18  1  0
M  END
$$$$

     RDKit          3D

 34 39  0  0  0  0  0  0  0  0999 V2000
   38.1290   28.4600   55.0320 C   0  0  0  0  0  0  0  0  0  0  0  0
   39.3470   29.4880   60.6930 C   0  0  0  0  0  0  0  0  0  0  0  0
   40.4920   34.4360   62.1290 C   0  0  0  0  0  0  0  0  0  0  0  0
   39.3480   32.4570   61.0490 C   0  0  0  0  0  0  0  0  0  0  0  0
   38.9390   28.6230   53.7700 C   0  0  0  0  0  0  0  0  0  0  0  0
   37.7500   34.6330   59.7280 C   0  0  0  0  0  0  0  0  0  0  0  0
   37.8170   28.6480   57.4810 C   0  0  0  0  0  0  0  0  0  0  0  0
   38.5260   29.7020   59.5140 C   0  0  0  0  0  0  0  0  0  0  0  0
   40.1290   35.7750   62.2030 C   0  0  0  0  0  0  0  0  0  0  0  0
   37.9250   30.9450   59.2600 C   0  0  0  0  0  0  0  0  0  0  0  0
   39.6380   28.5280   50.7750 C   0  0  0  0  0  0  0  0  0  0  0  0
   38.0550   36.9000   61.2330 C   0  0  0  0  0  0  0  0  0  0  0  0
   38.9130   35.9140   61.3540 C   0  0  0  0  0  0  0  0  0  0  0  0
   38.0450   31.7660   61.4370 O   0  0  0  0  0  0  0  0  0  0  0  0
   39.8660   30.3920   52.3200 C   0  0  0  0  0  0  0  0  0  0  0  0
   39.8750   29.8770   51.0580 C   0  0  0  0  0  0  0  0  0  0  0  0
   39.0900   27.5250   52.9310 C   0  0  0  0  0  0  0  0  0  0  0  0
   38.3090   32.0670   60.0740 C   0  0  0  0  0  0  0  0  0  0  0  0
   37.9930   30.0190   56.9250 C   0  0  0  0  0  0  0  0  0  0  0  0
   37.0510   30.5590   54.8260 O   0  0  0  0  0  0  0  0  0  0  0  0
   40.3100   30.0320   48.7710 C   0  0  0  0  0  0  0  0  0  0  0  0
   36.8440   35.6580   59.5160 C   0  0  0  0  0  0  0  0  0  0  0  0
   40.8260   28.6930   48.8650 C   0  0  0  0  0  0  0  0  0  0  0  0
   39.6170   33.8640   61.2730 N   0  0  0  0  0  0  0  0  0  0  0  0
   39.2480   27.5720   51.5670 C   0  0  0  0  0  0  0  0  0  0  0  0
   36.0210   37.7640   60.3930 O   0  0  0  0  0  0  0  0  0  0  0  0
   39.5500   29.7730   53.5370 C   0  0  0  0  0  0  0  0  0  0  0  0
   36.9890   36.7140   60.3920 C   0  0  0  0  0  0  0  0  0  0  0  0
   40.2550   30.7120   50.0190 C   0  0  0  0  0  0  0  0  0  0  0  0
   38.1430   31.2700   57.6620 C   0  0  0  0  0  0  0  0  0  0  0  0
   38.4540   28.6990   58.7920 N   0  0  0  0  0  0  0  0  0  0  0  0
   38.7240   34.7240   60.6640 C   0  0  0  0  0  0  0  0  0  0  0  0
   37.7710   29.7100   55.5690 N   0  0  0  0  0  0  0  0  0  0  0  0
   39.7990   28.0850   49.5690 O   0  0  0  0  0  0  0  0  0  0  0  0
  1 33  1  0
  3  9  2  0
  4 24  1  0
  4 14  1  0
  5  1  1  0
  6 32  1  0
  7 31  1  0
  8  2  1  0
 10 30  1  0
 10  8  1  0
 10 18  1  0
 11 16  1  0
 11 25  2  0
 12 13  1  0
 13  9  1  0
 15 27  1  0
 16 15  2  0
 17  5  2  0
 18  4  1  0
 18 14  1  0
 19 33  1  0
 19  7  1  0
 19 30  1  0
 20 33  1  0
 21 23  1  0
 21 29  1  0
 22  6  2  0
 22 28  1  0
 23 34  1  0
 24  3  1  0
 25 17  1  0
 27  5  1  0
 28 26  1  0
 28 12  2  0
 29 16  1  0
 31  8  2  0
 32 24  1  0
 32 13  2  0
 34 11  1  0
M  END
$$$$

     RDKit          3D

 37 39  0  0  0  0  0  0  0  0999 V2000
   41.5030   27.7490   57.6310 C   0  0  0  0  0  0  0  0  0  0  0  0
   38.2800   30.5610   58.5180 C   0  0  0  0  0  0  0  0  0  0  0  0
   39.3910   28.1810   50.6380 C   0  0  0  0  0  0  0  0  0  0  0  0
   40.2420   35.9600   61.8450 C   0  0  0  0  0  0  0  0  0  0  0  0
   40.3250   28.5080   59.7990 C   0  0  0  0  0  0  0  0  0  0  0  0
   40.2790   30.1140   49.6820 C   0  0  0  0  0  0  0  0  0  0  0  0
   40.1360   27.8140   58.4940 C   0  0  0  0  0  0  0  0  0  0  0  0
   37.6450   28.3190   54.5730 C   0  0  0  0  0  0  0  0  0  0  0  0
   39.8830   29.4500   48.6410 F   0  0  0  0  0  0  0  0  0  0  0  0
   40.1850   35.9790   63.3660 C   0  0  0  0  0  0  0  0  0  0  0  0
   37.7850   29.1060   58.7250 C   0  0  0  0  0  0  0  0  0  0  0  0
   39.2190   29.8620   53.2550 C   0  0  0  0  0  0  0  0  0  0  0  0
   39.6190   31.1420   49.4120 F   0  0  0  0  0  0  0  0  0  0  0  0
   39.8680   29.4060   50.9170 C   0  0  0  0  0  0  0  0  0  0  0  0
   38.2730   27.7780   52.6710 C   0  0  0  0  0  0  0  0  0  0  0  0
   38.4630   32.8550   57.9410 C   0  0  0  0  0  0  0  0  0  0  0  0
   38.1720   36.8070   61.1850 C   0  0  0  0  0  0  0  0  0  0  0  0
   38.8410   35.9050   60.9920 N   0  0  0  0  0  0  0  0  0  0  0  0
   39.2090   26.6070   57.9390 C   0  0  0  0  0  0  0  0  0  0  0  0
   38.2890   28.8900   53.6870 C   0  0  0  0  0  0  0  0  0  0  0  0
   38.4400   35.0240   60.1680 C   0  0  0  0  0  0  0  0  0  0  0  0
   38.1950   31.0630   56.2120 C   0  0  0  0  0  0  0  0  0  0  0  0
   38.8370   28.2560   57.8510 C   0  0  0  0  0  0  0  0  0  0  0  0
   38.1190   25.7860   58.2530 C   0  0  0  0  0  0  0  0  0  0  0  0
   38.5170   29.7280   55.8940 O   0  0  0  0  0  0  0  0  0  0  0  0
   38.5610   37.6310   62.1990 O   0  0  0  0  0  0  0  0  0  0  0  0
   39.2730   31.9550   55.9150 C   0  0  0  0  0  0  0  0  0  0  0  0
   40.1140   25.6140   57.1420 C   0  0  0  0  0  0  0  0  0  0  0  0
   36.7920   37.2870   60.5240 C   0  0  0  0  0  0  0  0  0  0  0  0
   37.9030   31.5930   57.3890 N   0  0  0  0  0  0  0  0  0  0  0  0
   41.5080   30.4830   49.5710 F   0  0  0  0  0  0  0  0  0  0  0  0
   39.7460   30.1060   52.0540 C   0  0  0  0  0  0  0  0  0  0  0  0
   39.3460   33.8410   60.0630 C   0  0  0  0  0  0  0  0  0  0  0  0
   38.7020   27.5210   51.5690 C   0  0  0  0  0  0  0  0  0  0  0  0
   38.7580   32.7430   59.4620 C   0  0  0  0  0  0  0  0  0  0  0  0
   37.8930   27.4080   55.7500 C   0  0  0  0  0  0  0  0  0  0  0  0
   38.4120   28.5160   56.4530 C   0  0  0  0  0  0  0  0  0  0  0  0
  1  7  1  0
  2 11  1  0
  3 14  2  0
  3 34  1  0
  4 10  1  0
  6 14  1  0
  7  5  1  0
  8 36  1  0
  9  6  1  0
 12 20  1  0
 13  6  1  0
 14 32  1  0
 15 20  2  0
 16 35  1  0
 17 26  2  0
 18 17  1  0
 18  4  1  0
 19 24  1  0
 19  7  1  0
 20  8  1  0
 21 18  1  0
 22 27  1  0
 22 30  1  0
 23 19  1  0
 23  7  1  0
 23 11  1  0
 25 22  1  0
 25 37  1  0
 28 19  1  0
 29 17  1  0
 30 16  1  0
 30  2  1  0
 31  6  1  0
 32 12  2  0
 33 21  1  0
 34 15  1  0
 35 33  1  0
 37 36  1  0
 37 23  1  0
M  END
$$$$

     RDKit          3D

 35 38  0  0  0  0  0  0  0  0999 V2000
   38.4600   31.8770   55.8980 C   0  0  0  0  0  0  0  0  0  0  0  0
   37.7830   31.7830   59.1270 C   0  0  0  0  0  0  0  0  0  0  0  0
   38.0070   32.6630   60.1370 N   0  0  0  0  0  0  0  0  0  0  0  0
   39.0810   30.0280   53.9190 O   0  0  0  0  0  0  0  0  0  0  0  0
   35.9900   29.9800   58.5900 O   0  0  0  0  0  0  0  0  0  0  0  0
   37.6790   32.4120   54.7470 O   0  0  0  0  0  0  0  0  0  0  0  0
   39.1560   34.7590   61.5660 C   0  0  0  0  0  0  0  0  0  0  0  0
   37.8550   35.0240   60.8700 C   0  0  0  0  0  0  0  0  0  0  0  0
   40.6080   30.4790   49.7320 C   0  0  0  0  0  0  0  0  0  0  0  0
   39.2550   27.5880   53.9760 C   0  0  0  0  0  0  0  0  0  0  0  0
   39.0990   26.7980   51.2710 O   0  0  0  0  0  0  0  0  0  0  0  0
   39.5210   28.0530   50.8190 C   0  0  0  0  0  0  0  0  0  0  0  0
   38.5100   37.2440   63.5430 O   0  0  0  0  0  0  0  0  0  0  0  0
   40.1570   30.3430   51.2150 C   0  0  0  0  0  0  0  0  0  0  0  0
   36.7520   36.5090   62.0690 C   0  0  0  0  0  0  0  0  0  0  0  0
   39.7520   28.1820   49.4210 C   0  0  0  0  0  0  0  0  0  0  0  0
   39.7460   27.7970   56.2890 O   0  0  0  0  0  0  0  0  0  0  0  0
   39.7330   33.4620   61.8240 C   0  0  0  0  0  0  0  0  0  0  0  0
   39.9570   29.7570   47.7690 O   0  0  0  0  0  0  0  0  0  0  0  0
   37.1600   36.2740   60.6200 C   0  0  0  0  0  0  0  0  0  0  0  0
   40.0860   29.4580   48.9690 C   0  0  0  0  0  0  0  0  0  0  0  0
   38.8400   29.5550   55.0760 C   0  0  0  0  0  0  0  0  0  0  0  0
   38.2690   30.9710   58.6040 C   0  0  0  0  0  0  0  0  0  0  0  0
   37.9810   30.3300   55.9630 C   0  0  0  0  0  0  0  0  0  0  0  0
   37.1600   33.8930   60.4140 C   0  0  0  0  0  0  0  0  0  0  0  0
   38.8090   28.0770   55.3400 C   0  0  0  0  0  0  0  0  0  0  0  0
   37.4170   36.7540   63.4200 C   0  0  0  0  0  0  0  0  0  0  0  0
   37.8110   30.0820   57.6320 C   0  0  0  0  0  0  0  0  0  0  0  0
   36.5500   36.8930   59.6310 C   0  0  0  0  0  0  0  0  0  0  0  0
   40.9540   36.2110   61.6710 C   0  0  0  0  0  0  0  0  0  0  0  0
   37.4860   29.6430   59.0550 C   0  0  0  0  0  0  0  0  0  0  0  0
   39.2200   28.8410   53.0230 C   0  0  0  0  0  0  0  0  0  0  0  0
   39.7040   29.1680   51.6070 C   0  0  0  0  0  0  0  0  0  0  0  0
   39.2010   32.3930   60.9020 C   0  0  0  0  0  0  0  0  0  0  0  0
   39.7870   35.6860   62.4310 O   0  0  0  0  0  0  0  0  0  0  0  0
  2  3  1  0
  3 25  1  0
  3 34  1  0
  4 22  1  0
  6  1  1  0
  7 18  1  0
  7 35  1  0
  8 20  1  0
  8  7  1  0
  9 14  1  0
 10 26  1  0
 12 11  1  0
 12 33  1  0
 14 33  2  0
 15 27  1  0
 16 12  2  0
 19 21  2  0
 20 15  1  0
 21 16  1  0
 21  9  1  0
 22 26  1  0
 22 24  1  0
 23 31  1  0
 23  2  1  0
 24  1  1  0
 25  8  1  0
 26 17  1  0
 27 13  2  0
 28 24  1  0
 28 23  1  0
 28 31  1  0
 29 20  2  0
 30 35  1  0
 31  5  1  0
 32 33  1  0
 32  4  1  0
 32 10  1  0
 34 18  1  0
M  END
$$$$

     RDKit          3D

 24 25  0  0  0  0  0  0  0  0999 V2000
   38.0270   32.9310   57.1280 N   0  0  0  0  0  0  0  0  0  0  0  0
   37.3780   27.2170   53.2700 C   0  0  0  0  0  0  0  0  0  0  0  0
   38.1340   30.8560   55.8960 C   0  0  0  0  0  0  0  0  0  0  0  0
   38.3130   29.1980   55.9410 C   0  0  0  0  0  0  0  0  0  0  0  0
   38.3520   27.0060   56.7570 S   0  0  0  0  0  0  0  0  0  0  0  0
   40.0750   28.4800   56.5010 C   0  0  0  0  0  0  0  0  0  0  0  0
   39.9630   30.4570   54.2230 C   0  0  0  0  0  0  0  0  0  0  0  0
   38.7840   28.4000   56.2560 C   0  0  0  0  0  0  0  0  0  0  0  0
   38.8730   28.8420   52.0920 C   0  0  0  0  0  0  0  0  0  0  0  0
   38.0290   31.4620   57.8430 O   0  0  0  0  0  0  0  0  0  0  0  0
   39.8290   25.3820   58.0230 O   0  0  0  0  0  0  0  0  0  0  0  0
   38.8520   27.7840   51.0470 C   0  0  0  0  0  0  0  0  0  0  0  0
   38.6400   29.9000   55.0520 C   0  0  0  0  0  0  0  0  0  0  0  0
   40.6450   27.4690   56.9980 C   0  0  0  0  0  0  0  0  0  0  0  0
   39.7540   28.0370   49.9720 C   0  0  0  0  0  0  0  0  0  0  0  0
   37.7990   28.6140   52.9820 O   0  0  0  0  0  0  0  0  0  0  0  0
   39.4630   29.3010   49.2480 O   0  0  0  0  0  0  0  0  0  0  0  0
   38.2750   31.9620   56.6020 C   0  0  0  0  0  0  0  0  0  0  0  0
   39.7220   26.4620   57.2880 C   0  0  0  0  0  0  0  0  0  0  0  0
   39.9280   30.9740   52.7510 C   0  0  0  0  0  0  0  0  0  0  0  0
   39.9160   29.8920   51.7670 C   0  0  0  0  0  0  0  0  0  0  0  0
   41.0360   29.8600   50.8650 C   0  0  0  0  0  0  0  0  0  0  0  0
   39.1520   33.2840   56.3650 C   0  0  0  0  0  0  0  0  0  0  0  0
   40.6990   30.0900   49.5400 C   0  0  0  0  0  0  0  0  0  0  0  0
  3 18  1  0
  4  8  1  0
  5 19  1  0
  6 14  1  0
  8  6  2  0
  8  5  1  0
  9 16  1  0
 12  9  1  0
 13  7  1  0
 13  3  1  0
 13  4  1  0
 14 19  1  0
 15 12  1  0
 16  2  1  0
 17 24  1  0
 17 15  1  0
 18  1  1  0
 18 10  1  0
 19 11  2  0
 20  7  1  0
 21  9  1  0
 21 20  1  0
 22 21  1  0
 23  1  1  0
 24 22  1  0
M  END
$$$$

     RDKit          3D

 31 33  0  0  0  0  0  0  0  0999 V2000
   38.4660   32.9970   56.2710 C   0  0  0  0  0  0  0  0  0  0  0  0
   39.2570   26.6600   54.7320 N   0  0  0  0  0  0  0  0  0  0  0  0
   38.4710   33.9530   55.6050 F   0  0  0  0  0  0  0  0  0  0  0  0
   38.7050   33.8710   58.7530 C   0  0  0  0  0  0  0  0  0  0  0  0
   38.7520   31.7250   55.6980 N   0  0  0  0  0  0  0  0  0  0  0  0
   37.1560   28.0730   54.0020 C   0  0  0  0  0  0  0  0  0  0  0  0
   39.7200   33.7280   61.2250 C   0  0  0  0  0  0  0  0  0  0  0  0
   38.2830   36.1770   61.9520 C   0  0  0  0  0  0  0  0  0  0  0  0
   39.0450   29.8820   57.3440 N   0  0  0  0  0  0  0  0  0  0  0  0
   36.0960   35.0610   59.1060 O   0  0  0  0  0  0  0  0  0  0  0  0
   39.8950   26.8690   57.1490 C   0  0  0  0  0  0  0  0  0  0  0  0
   39.6340   26.1640   58.4070 C   0  0  0  0  0  0  0  0  0  0  0  0
   39.9850   28.4320   51.1100 C   0  0  0  0  0  0  0  0  0  0  0  0
   39.8180   36.1300   62.4970 S   0  0  0  0  0  0  0  0  0  0  0  0
   38.6290   34.2460   60.2070 C   0  0  0  0  0  0  0  0  0  0  0  0
   38.6430   30.2830   60.0050 C   0  0  0  0  0  0  0  0  0  0  0  0
   39.0360   30.4740   56.2180 C   0  0  0  0  0  0  0  0  0  0  0  0
   39.9880   26.6700   56.0080 C   0  0  0  0  0  0  0  0  0  0  0  0
   39.6040   25.5550   56.9430 C   0  0  0  0  0  0  0  0  0  0  0  0
   38.5640   32.7900   57.7550 C   0  0  0  0  0  0  0  0  0  0  0  0
   37.3000   37.0470   62.5760 O   0  0  0  0  0  0  0  0  0  0  0  0
   38.6800   27.8670   53.9630 C   0  0  0  0  0  0  0  0  0  0  0  0
   38.4920   31.5280   58.1300 C   0  0  0  0  0  0  0  0  0  0  0  0
   36.4750   37.1680   60.1040 O   0  0  0  0  0  0  0  0  0  0  0  0
   38.9240   27.0910   52.3900 O   0  0  0  0  0  0  0  0  0  0  0  0
   39.0500   27.6350   51.1650 C   0  0  0  0  0  0  0  0  0  0  0  0
   39.2820   29.3150   54.8530 S   0  0  0  0  0  0  0  0  0  0  0  0
   37.8900   35.4230   60.6620 C   0  0  0  0  0  0  0  0  0  0  0  0
   39.3270   27.5420   50.3290 O   0  0  0  0  0  0  0  0  0  0  0  0
   36.6910   35.9010   59.9380 C   0  0  0  0  0  0  0  0  0  0  0  0
   38.9660   30.3930   58.5630 C   0  0  0  0  0  0  0  0  0  0  0  0
  1  3  1  0
  1 20  1  0
  4 15  1  0
  5 17  2  0
  5  1  1  0
  8 14  1  0
  8 21  2  0
  9 31  1  0
 10 30  2  0
 11 12  1  0
 15 28  1  0
 15  7  1  0
 17  9  1  0
 18  2  1  0
 18 19  1  0
 18 11  1  0
 19 11  1  0
 19 12  1  0
 20 23  2  0
 20  4  1  0
 22  6  1  0
 22  2  1  0
 22 27  1  0
 23 31  2  0
 25 22  1  0
 26 13  1  0
 26 25  1  0
 27 17  1  0
 28 30  1  0
 28  8  1  0
 29 26  1  0
 30 24  1  0
 31 16  1  0
M  END
$$$$

     RDKit          3D

 36 39  0  0  0  0  0  0  0  0999 V2000
   38.2550   25.7020   56.0890 C   0  0  0  0  0  0  0  0  0  0  0  0
   39.8470   30.6010   52.3930 C   0  0  0  0  0  0  0  0  0  0  0  0
   40.1660   29.4040   49.0730 O   0  0  0  0  0  0  0  0  0  0  0  0
   36.9110   38.5410   61.6530 O   0  0  0  0  0  0  0  0  0  0  0  0
   37.8940   26.9860   55.4170 C   0  0  0  0  0  0  0  0  0  0  0  0
   39.2060   36.0670   62.1350 N   0  0  0  0  0  0  0  0  0  0  0  0
   39.9720   28.1600   55.9080 C   0  0  0  0  0  0  0  0  0  0  0  0
   40.2670   36.8000   62.6100 C   0  0  0  0  0  0  0  0  0  0  0  0
   40.2060   37.9990   62.5220 O   0  0  0  0  0  0  0  0  0  0  0  0
   38.1550   32.6850   57.3900 C   0  0  0  0  0  0  0  0  0  0  0  0
   38.4890   35.5480   60.8610 C   0  0  0  0  0  0  0  0  0  0  0  0
   39.9320   29.4540   50.3800 C   0  0  0  0  0  0  0  0  0  0  0  0
   40.1600   28.3310   48.4740 C   0  0  0  0  0  0  0  0  0  0  0  0
   38.3880   33.8980   59.0760 N   0  0  0  0  0  0  0  0  0  0  0  0
   41.3290   36.0630   63.3170 C   0  0  0  0  0  0  0  0  0  0  0  0
   37.4870   30.3660   56.1010 C   0  0  0  0  0  0  0  0  0  0  0  0
   39.6220   25.7770   56.5930 C   0  0  0  0  0  0  0  0  0  0  0  0
   39.5810   33.6240   60.7790 O   0  0  0  0  0  0  0  0  0  0  0  0
   40.1700   30.6310   51.0480 C   0  0  0  0  0  0  0  0  0  0  0  0
   39.3890   28.3650   50.9570 C   0  0  0  0  0  0  0  0  0  0  0  0
   36.4610   36.8680   59.5800 O   0  0  0  0  0  0  0  0  0  0  0  0
   39.1430   29.5460   52.9680 C   0  0  0  0  0  0  0  0  0  0  0  0
   40.3530   26.9000   56.5240 C   0  0  0  0  0  0  0  0  0  0  0  0
   37.3020   30.8190   57.1360 O   0  0  0  0  0  0  0  0  0  0  0  0
   37.9860   29.4940   55.0360 C   0  0  0  0  0  0  0  0  0  0  0  0
   37.3960   36.0120   59.3700 C   0  0  0  0  0  0  0  0  0  0  0  0
   36.9100   37.2280   61.8630 C   0  0  0  0  0  0  0  0  0  0  0  0
   39.0040   28.3790   52.3010 C   0  0  0  0  0  0  0  0  0  0  0  0
   37.9860   32.5800   58.7600 C   0  0  0  0  0  0  0  0  0  0  0  0
   38.8590   34.2630   60.1720 C   0  0  0  0  0  0  0  0  0  0  0  0
   40.0410   24.6900   57.2430 O   0  0  0  0  0  0  0  0  0  0  0  0
   38.5660   31.1870   56.6920 C   0  0  0  0  0  0  0  0  0  0  0  0
   38.7910   29.8750   54.0820 O   0  0  0  0  0  0  0  0  0  0  0  0
   36.5260   32.5390   59.3500 C   0  0  0  0  0  0  0  0  0  0  0  0
   38.7040   28.1570   55.5440 C   0  0  0  0  0  0  0  0  0  0  0  0
   38.1910   36.6490   61.3310 C   0  0  0  0  0  0  0  0  0  0  0  0
  1 17  1  0
  2 22  1  0
  3 12  1  0
  4 27  1  0
  5 35  1  0
  5  1  2  0
  6  8  1  0
  7 23  1  0
  8 15  1  0
  9  8  2  0
 10 29  1  0
 11 26  1  0
 11 36  1  0
 11  6  1  0
 12 20  2  0
 12 19  1  0
 13  3  1  0
 14 30  1  0
 16 25  1  0
 16 32  1  0
 16 24  1  0
 17 31  1  0
 19  2  2  0
 20 28  1  0
 22 33  1  0
 23 17  2  0
 25 33  1  0
 25 35  1  0
 26 21  2  0
 28 22  2  0
 29 14  1  0
 29 34  1  0
 30 18  2  0
 30 11  1  0
 32 24  1  0
 32 10  1  0
 35  7  2  0
 36 27  1  0
 36  6  1  0
M  END
$$$$

     RDKit          3D

 22 24  0  0  0  0  0  0  0  0999 V2000
   39.5950   29.7700   52.3200 C   0  0  0  0  0  0  0  0  0  0  0  0
   38.8470   34.9250   61.4570 C   0  0  0  0  0  0  0  0  0  0  0  0
   37.9790   35.6340   60.3720 C   0  0  0  0  0  0  0  0  0  0  0  0
   38.5470   30.6060   55.4630 C   0  0  0  0  0  0  0  0  0  0  0  0
   38.3650   33.2780   59.6350 C   0  0  0  0  0  0  0  0  0  0  0  0
   39.4240   31.0220   53.1370 C   0  0  0  0  0  0  0  0  0  0  0  0
   39.5570   27.5920   51.1310 C   0  0  0  0  0  0  0  0  0  0  0  0
   38.7790   31.7250   56.2900 N   0  0  0  0  0  0  0  0  0  0  0  0
   40.3580   29.7800   49.6860 Cl  0  0  0  0  0  0  0  0  0  0  0  0
   39.2130   33.5640   60.8880 C   0  0  0  0  0  0  0  0  0  0  0  0
   37.9400   27.2310   54.3240 C   0  0  0  0  0  0  0  0  0  0  0  0
   37.0520   37.8640   61.0100 O   0  0  0  0  0  0  0  0  0  0  0  0
   38.8480   30.2800   54.4270 C   0  0  0  0  0  0  0  0  0  0  0  0
   39.1350   28.9060   53.6210 C   0  0  0  0  0  0  0  0  0  0  0  0
   39.7590   28.9750   51.1660 C   0  0  0  0  0  0  0  0  0  0  0  0
   38.7890   27.7540   53.4050 C   0  0  0  0  0  0  0  0  0  0  0  0
   36.9230   36.8400   60.0620 C   0  0  0  0  0  0  0  0  0  0  0  0
   39.0720   26.9390   52.3230 C   0  0  0  0  0  0  0  0  0  0  0  0
   38.0570   32.1410   57.4030 C   0  0  0  0  0  0  0  0  0  0  0  0
   37.5610   34.5100   59.4190 C   0  0  0  0  0  0  0  0  0  0  0  0
   38.7670   32.1340   58.7260 C   0  0  0  0  0  0  0  0  0  0  0  0
   37.5790   33.5470   57.0120 N   0  0  0  0  0  0  0  0  0  0  0  0
  1  6  1  0
  1 14  1  0
  3 17  1  0
  3  2  1  0
  4  8  2  3
  5 21  1  0
  5 10  1  0
  6 13  1  0
  7 15  1  0
  7 18  2  0
  8 19  1  0
  9 15  1  0
 10  2  1  0
 13  4  1  0
 14 13  1  0
 15  1  2  0
 16 14  2  0
 16 11  1  0
 17 12  1  0
 18 16  1  0
 19 22  1  0
 19 21  1  0
 20  5  1  0
 20  3  1  0
M  END
$$$$

     RDKit          3D

 36 40  0  0  0  0  0  0  0  0999 V2000
   38.5880   38.1080   61.8840 C   0  0  0  0  0  0  0  0  0  0  0  0
   38.8990   28.2290   52.1100 N   0  0  0  0  0  0  0  0  0  0  0  0
   40.0160   30.8970   49.9830 C   0  0  0  0  0  0  0  0  0  0  0  0
   40.6580   34.7030   60.7870 Cl  0  0  0  0  0  0  0  0  0  0  0  0
   37.3840   37.0790   59.9150 C   0  0  0  0  0  0  0  0  0  0  0  0
   38.0630   26.5880   56.1400 C   0  0  0  0  0  0  0  0  0  0  0  0
   39.9120   28.7890   51.1740 C   0  0  0  0  0  0  0  0  0  0  0  0
   40.4930   29.8820   48.7810 C   0  0  0  0  0  0  0  0  0  0  0  0
   35.5690   32.2910   60.0590 O   0  0  0  0  0  0  0  0  0  0  0  0
   38.4770   30.5940   58.4360 S   0  0  0  0  0  0  0  0  0  0  0  0
   40.2480   28.3660   48.7130 C   0  0  0  0  0  0  0  0  0  0  0  0
   35.6760   33.6410   61.7830 O   0  0  0  0  0  0  0  0  0  0  0  0
   39.9720   30.3140   51.3710 C   0  0  0  0  0  0  0  0  0  0  0  0
   37.7820   32.2850   58.1990 C   0  0  0  0  0  0  0  0  0  0  0  0
   38.6330   31.4310   56.0720 C   0  0  0  0  0  0  0  0  0  0  0  0
   39.1170   29.0400   56.3440 C   0  0  0  0  0  0  0  0  0  0  0  0
   37.1960   37.8910   61.2480 C   0  0  0  0  0  0  0  0  0  0  0  0
   38.9370   28.9710   53.2500 N   0  0  0  0  0  0  0  0  0  0  0  0
   37.9410   35.6310   60.2950 C   0  0  0  0  0  0  0  0  0  0  0  0
   39.1490   25.8970   55.2910 C   0  0  0  0  0  0  0  0  0  0  0  0
   39.8540   27.9420   50.0760 C   0  0  0  0  0  0  0  0  0  0  0  0
   36.0620   36.9530   59.1450 C   0  0  0  0  0  0  0  0  0  0  0  0
   38.4610   28.0480   54.2320 C   0  0  0  0  0  0  0  0  0  0  0  0
   40.1030   27.7920   56.9850 C   0  0  0  0  0  0  0  0  0  0  0  0
   38.0640   28.0590   55.7420 C   0  0  0  0  0  0  0  0  0  0  0  0
   39.4840   36.8480   61.6740 C   0  0  0  0  0  0  0  0  0  0  0  0
   36.1150   33.3110   60.7270 C   0  0  0  0  0  0  0  0  0  0  0  0
   37.4410   33.9610   60.3100 C   0  0  0  0  0  0  0  0  0  0  0  0
   39.3000   26.7410   54.0490 C   0  0  0  0  0  0  0  0  0  0  0  0
   38.9580   31.2940   54.7040 O   0  0  0  0  0  0  0  0  0  0  0  0
   38.3160   33.3260   59.1710 C   0  0  0  0  0  0  0  0  0  0  0  0
   38.6270   32.6180   56.9280 C   0  0  0  0  0  0  0  0  0  0  0  0
   39.1890   35.5070   61.3520 C   0  0  0  0  0  0  0  0  0  0  0  0
   40.0450   26.6250   56.2550 C   0  0  0  0  0  0  0  0  0  0  0  0
   38.2000   30.0650   56.7890 C   0  0  0  0  0  0  0  0  0  0  0  0
   38.0210   33.7510   56.3380 O   0  0  0  0  0  0  0  0  0  0  0  0
  2 18  1  0
  3 13  1  0
  5 22  1  0
  5 19  1  0
  5 17  1  0
  7 13  1  0
  7  2  1  0
  8  3  1  0
  9 27  2  0
 11  8  1  0
 11 21  1  0
 14 10  1  0
 14 31  1  0
 15 30  1  0
 15 35  1  0
 15 32  1  0
 16 35  1  0
 16 24  1  0
 17  1  1  0
 19 28  1  0
 19 33  1  0
 20 29  1  0
 20  6  1  0
 20 34  1  0
 21  7  1  0
 23 18  1  0
 23 25  1  0
 25  6  1  0
 25 16  1  0
 26  1  1  0
 27 12  1  0
 28 31  1  0
 28 27  1  0
 29 23  1  0
 32 36  1  0
 32 14  1  0
 33  4  1  0
 33 26  1  0
 34 24  1  0
 35 10  1  0
M  END
$$$$

     RDKit          3D

 11 10  0  0  0  0  0  0  0  0999 V2000
   38.0270   31.5200   57.6290 C   0  0  0  0  0  0  0  0  0  0  0  0
   38.2710   28.2110   55.8930 C   0  0  0  0  0  0  0  0  0  0  0  0
   38.9100   27.9750   53.5380 C   0  0  0  0  0  0  0  0  0  0  0  0
   39.6870   28.6670   51.3300 C   0  0  0  0  0  0  0  0  0  0  0  0
   38.4440   28.1840   52.1060 C   0  0  0  0  0  0  0  0  0  0  0  0
   38.0460   28.7730   54.5120 C   0  0  0  0  0  0  0  0  0  0  0  0
   37.8480   29.0230   57.1160 C   0  0  0  0  0  0  0  0  0  0  0  0
   38.4340   32.8810   58.4540 C   0  0  0  0  0  0  0  0  0  0  0  0
   37.2210   33.8110   58.5080 O   0  0  0  0  0  0  0  0  0  0  0  0
   38.7120   30.1650   57.5290 C   0  0  0  0  0  0  0  0  0  0  0  0
   40.0090   27.6480   50.3550 N   0  0  0  0  0  0  0  0  0  0  0  0
  1  8  1  0
  2  7  1  0
  3  6  1  0
  4  5  1  0
  5  3  1  0
  6  2  1  0
  7 10  1  0
  8  9  1  0
 10  1  1  0
 11  4  1  0
M  END
$$$$

     RDKit          3D

 25 28  0  0  0  0  0  0  0  0999 V2000
   37.7450   30.0280   57.5700 C   0  0  0  0  0  0  0  0  0  0  0  0
   38.6640   29.0650   58.1140 C   0  0  0  0  0  0  0  0  0  0  0  0
   40.7890   26.5770   54.0020 C   0  0  0  0  0  0  0  0  0  0  0  0
   38.6300   32.4700   57.4760 C   0  0  0  0  0  0  0  0  0  0  0  0
   39.7370   30.1750   54.6950 C   0  0  0  0  0  0  0  0  0  0  0  0
   39.3050   26.7100   54.3570 C   0  0  0  0  0  0  0  0  0  0  0  0
   38.0650   32.1210   58.7010 C   0  0  0  0  0  0  0  0  0  0  0  0
   38.1000   31.4150   57.7750 C   0  0  0  0  0  0  0  0  0  0  0  0
   38.1460   27.9190   52.5290 C   0  0  0  0  0  0  0  0  0  0  0  0
   37.8220   33.6090   56.7330 N   0  0  0  0  0  0  0  0  0  0  0  0
   36.4900   28.7380   52.3650 O   0  0  0  0  0  0  0  0  0  0  0  0
   38.6440   26.8950   51.5840 C   0  0  0  0  0  0  0  0  0  0  0  0
   37.9030   28.5620   55.3270 C   0  0  0  0  0  0  0  0  0  0  0  0
   40.1560   30.7230   50.5380 C   0  0  0  0  0  0  0  0  0  0  0  0
   37.6730   29.9580   55.9500 C   0  0  0  0  0  0  0  0  0  0  0  0
   39.5820   27.9590   50.8870 C   0  0  0  0  0  0  0  0  0  0  0  0
   41.0020   30.1290   48.5000 F   0  0  0  0  0  0  0  0  0  0  0  0
   40.4960   29.7110   49.5880 C   0  0  0  0  0  0  0  0  0  0  0  0
   40.2720   28.3040   49.6740 C   0  0  0  0  0  0  0  0  0  0  0  0
   39.4090   30.2260   51.7010 C   0  0  0  0  0  0  0  0  0  0  0  0
   39.1060   28.9760   51.7940 C   0  0  0  0  0  0  0  0  0  0  0  0
   38.7060   28.0000   53.8890 C   0  0  0  0  0  0  0  0  0  0  0  0
   38.8590   30.9280   55.3800 C   0  0  0  0  0  0  0  0  0  0  0  0
   39.1780   29.3380   53.8760 O   0  0  0  0  0  0  0  0  0  0  0  0
   40.7700   25.2310   53.9680 F   0  0  0  0  0  0  0  0  0  0  0  0
  1  2  1  0
  3  6  1  0
  4 10  1  0
  4  8  1  0
  4  7  1  0
  5 23  1  0
  8  1  1  0
  8  7  1  0
  9 11  1  0
  9 22  1  0
 12  9  1  0
 13 15  1  0
 14 20  1  0
 15  1  1  0
 16 12  1  0
 16 21  1  0
 17 18  1  0
 18 19  1  0
 18 14  2  0
 19 16  2  0
 20 21  2  0
 21  9  1  0
 22  6  1  0
 22 13  1  0
 23 15  1  0
 24 22  1  0
 24  5  1  0
 25  3  1  0
M  END
$$$$

     RDKit          3D

 32 35  0  0  0  0  0  0  0  0999 V2000
   38.3570   32.2500   58.0070 C   0  0  0  0  0  0  0  0  0  0  0  0
   36.9790   37.9370   60.4180 C   0  0  0  0  0  0  0  0  0  0  0  0
   39.2730   29.1590   53.2000 C   0  0  0  0  0  0  0  0  0  0  0  0
   38.3950   29.8440   57.0950 C   0  0  0  0  0  0  0  0  0  0  0  0
   38.0970   32.7640   59.4340 C   0  0  0  0  0  0  0  0  0  0  0  0
   39.3890   30.5550   53.7130 C   0  0  0  0  0  0  0  0  0  0  0  0
   38.4060   30.8580   48.8650 O   0  0  0  0  0  0  0  0  0  0  0  0
   38.8470   26.0440   55.9980 C   0  0  0  0  0  0  0  0  0  0  0  0
   39.5490   34.4510   60.2890 C   0  0  0  0  0  0  0  0  0  0  0  0
   38.6110   31.2540   58.0680 C   0  0  0  0  0  0  0  0  0  0  0  0
   40.4290   29.9750   48.9400 O   0  0  0  0  0  0  0  0  0  0  0  0
   38.9980   29.7490   55.9530 N   0  0  0  0  0  0  0  0  0  0  0  0
   39.5030   28.4760   55.5500 C   0  0  0  0  0  0  0  0  0  0  0  0
   39.7090   29.5800   51.7810 C   0  0  0  0  0  0  0  0  0  0  0  0
   37.0200   36.4870   62.4120 C   0  0  0  0  0  0  0  0  0  0  0  0
   38.6490   30.7820   54.9930 C   0  0  0  0  0  0  0  0  0  0  0  0
   39.8570   25.7330   54.8550 C   0  0  0  0  0  0  0  0  0  0  0  0
   41.0240   30.1960   51.4470 C   0  0  0  0  0  0  0  0  0  0  0  0
   38.7610   29.2630   50.5770 C   0  0  0  0  0  0  0  0  0  0  0  0
   40.5860   34.5820   60.9260 N   0  0  0  0  0  0  0  0  0  0  0  0
   39.2290   30.0800   49.3520 C   0  0  0  0  0  0  0  0  0  0  0  0
   39.1740   26.7830   52.6460 C   0  0  0  0  0  0  0  0  0  0  0  0
   37.2100   34.6620   58.1960 O   0  0  0  0  0  0  0  0  0  0  0  0
   37.5200   35.5330   60.2710 C   0  0  0  0  0  0  0  0  0  0  0  0
   36.9450   37.7420   61.8360 C   0  0  0  0  0  0  0  0  0  0  0  0
   39.4280   27.2610   56.6360 C   0  0  0  0  0  0  0  0  0  0  0  0
   37.1060   36.7080   59.7240 C   0  0  0  0  0  0  0  0  0  0  0  0
   38.8430   27.9120   54.2440 C   0  0  0  0  0  0  0  0  0  0  0  0
   37.0360   35.3210   61.5600 C   0  0  0  0  0  0  0  0  0  0  0  0
   37.7820   26.7940   55.0590 C   0  0  0  0  0  0  0  0  0  0  0  0
   38.1290   34.3100   59.4310 C   0  0  0  0  0  0  0  0  0  0  0  0
   39.6580   26.6950   53.9160 C   0  0  0  0  0  0  0  0  0  0  0  0
  1 10  1  0
  1  5  1  0
  2 25  1  0
  3 14  1  0
  3  6  1  0
  3 28  1  0
  4 10  1  0
  6 16  1  0
  7 21  2  0
  8 17  1  0
  8 26  1  0
  9 20  3  0
 11 21  1  0
 12  4  1  0
 13 12  1  0
 13 26  1  0
 14 18  1  0
 16 12  1  0
 19 14  1  0
 21 19  1  0
 22 32  2  0
 24 31  1  0
 24 29  1  0
 25 15  2  0
 27 24  1  0
 27  2  1  0
 28 30  1  0
 28 13  1  0
 29 15  1  0
 30  8  1  0
 31 23  1  0
 31  5  1  0
 31  9  1  0
 32 28  1  0
 32 17  1  0
M  END
$$$$

     RDKit          3D

 53 57  0  0  0  0  0  0  0  0999 V2000
   36.8910   29.9790   59.2950 O   0  0  0  0  0  0  0  0  0  0  0  0
   38.3190   33.2660   48.9780 O   0  0  0  0  0  0  0  0  0  0  0  0
   41.2130   27.9320   59.1150 C   0  0  0  0  0  0  0  0  0  0  0  0
   37.7310   30.7870   59.0350 C   0  0  0  0  0  0  0  0  0  0  0  0
   39.9270   28.0280   51.3890 C   0  0  0  0  0  0  0  0  0  0  0  0
   37.1080   24.9850   55.1590 C   0  0  0  0  0  0  0  0  0  0  0  0
   38.8310   39.7130   61.0860 O   0  0  0  0  0  0  0  0  0  0  0  0
   38.8140   25.8880   53.9800 C   0  0  0  0  0  0  0  0  0  0  0  0
   37.7740   31.9050   59.9180 C   0  0  0  0  0  0  0  0  0  0  0  0
   40.1690   32.5150   61.6600 C   0  0  0  0  0  0  0  0  0  0  0  0
   41.6760   27.7160   56.9820 C   0  0  0  0  0  0  0  0  0  0  0  0
   37.9200   31.9630   61.1780 O   0  0  0  0  0  0  0  0  0  0  0  0
   38.3890   26.8930   56.1000 C   0  0  0  0  0  0  0  0  0  0  0  0
   37.4520   33.2500   59.2050 C   0  0  0  0  0  0  0  0  0  0  0  0
   39.0330   29.3100   52.7620 O   0  0  0  0  0  0  0  0  0  0  0  0
   38.3750   33.0590   57.9020 C   0  0  0  0  0  0  0  0  0  0  0  0
   38.6030   31.1670   52.2730 C   0  0  0  0  0  0  0  0  0  0  0  0
   39.9150   30.3110   49.5640 C   0  0  0  0  0  0  0  0  0  0  0  0
   39.8020   29.3610   48.3780 C   0  0  0  0  0  0  0  0  0  0  0  0
   39.0390   31.7310   47.6320 O   0  0  0  0  0  0  0  0  0  0  0  0
   37.7120   37.6700   61.6960 C   0  0  0  0  0  0  0  0  0  0  0  0
   36.4210   37.6470   59.2800 C   0  0  0  0  0  0  0  0  0  0  0  0
   38.4900   31.8580   55.7080 C   0  0  0  0  0  0  0  0  0  0  0  0
   37.4290   36.5190   60.9190 C   0  0  0  0  0  0  0  0  0  0  0  0
   39.7430   27.1400   56.0040 O   0  0  0  0  0  0  0  0  0  0  0  0
   38.0390   31.8540   57.1400 N   0  0  0  0  0  0  0  0  0  0  0  0
   38.9470   27.0710   51.8040 C   0  0  0  0  0  0  0  0  0  0  0  0
   38.2080   30.5840   57.6630 C   0  0  0  0  0  0  0  0  0  0  0  0
   38.7420   32.1170   48.8610 C   0  0  0  0  0  0  0  0  0  0  0  0
   37.6830   39.5710   58.6590 F   0  0  0  0  0  0  0  0  0  0  0  0
   38.8960   31.6230   61.9250 C   0  0  0  0  0  0  0  0  0  0  0  0
   39.7440   30.3390   52.1380 C   0  0  0  0  0  0  0  0  0  0  0  0
   39.2540   30.4510   55.5090 S   0  0  0  0  0  0  0  0  0  0  0  0
   38.0000   32.8370   54.8870 C   0  0  0  0  0  0  0  0  0  0  0  0
   39.4890   29.0070   51.8380 N   0  0  0  0  0  0  0  0  0  0  0  0
   39.9880   28.3860   58.8120 C   0  0  0  0  0  0  0  0  0  0  0  0
   42.1250   27.5990   58.2330 C   0  0  0  0  0  0  0  0  0  0  0  0
   36.8640   38.9930   59.7600 C   0  0  0  0  0  0  0  0  0  0  0  0
   39.0920   24.9390   56.5820 C   0  0  0  0  0  0  0  0  0  0  0  0
   40.2970   27.8850   56.8090 N   0  0  0  0  0  0  0  0  0  0  0  0
   38.8890   30.7490   62.7640 O   0  0  0  0  0  0  0  0  0  0  0  0
   43.4020   27.1470   58.2230 F   0  0  0  0  0  0  0  0  0  0  0  0
   41.1480   30.5150   49.8730 F   0  0  0  0  0  0  0  0  0  0  0  0
   38.5640   31.8650   51.0610 C   0  0  0  0  0  0  0  0  0  0  0  0
   39.1190   29.8490   57.1420 C   0  0  0  0  0  0  0  0  0  0  0  0
   39.6970   28.7850   57.5580 C   0  0  0  0  0  0  0  0  0  0  0  0
   38.3320   27.1030   53.1610 C   0  0  0  0  0  0  0  0  0  0  0  0
   37.5690   39.0040   61.0330 C   0  0  0  0  0  0  0  0  0  0  0  0
   37.4410   36.7760   59.6130 O   0  0  0  0  0  0  0  0  0  0  0  0
   37.8340   35.0700   61.1650 C   0  0  0  0  0  0  0  0  0  0  0  0
   38.3990   25.6040   55.3360 C   0  0  0  0  0  0  0  0  0  0  0  0
   39.0250   31.2710   49.9340 C   0  0  0  0  0  0  0  0  0  0  0  0
   36.8870   34.0660   60.5030 C   0  0  0  0  0  0  0  0  0  0  0  0
  4  1  2  0
  4  9  1  0
  5 27  1  0
  5 35  1  0
  6 51  1  0
  8 51  1  0
  9 12  1  0
 10 31  1  0
 11 37  1  0
 12 31  1  0
 14  9  1  0
 14 53  1  0
 16 14  1  0
 18 19  1  0
 18 43  1  0
 18 52  1  0
 20 29  2  0
 22 49  1  0
 22 38  1  0
 23 26  1  0
 24 50  1  0
 24 21  1  0
 25 13  1  0
 25 40  1  0
 26 28  1  0
 26 16  1  0
 27 47  1  0
 28  4  1  0
 29  2  1  0
 29 52  1  0
 31 41  2  0
 32 17  1  0
 32 15  1  0
 33 23  1  0
 33 45  1  0
 34 23  2  0
 35 32  1  0
 35 15  1  0
 36  3  1  0
 37  3  2  0
 38 30  1  0
 38 48  1  0
 40 11  1  0
 40 46  1  0
 42 37  1  0
 44 17  1  0
 45 46  1  0
 45 28  1  0
 46 36  2  0
 47  8  1  0
 48  7  1  0
 48 21  1  0
 49 24  1  0
 51 13  1  0
 51 39  1  0
 52 44  1  0
 53 50  1  0
M  END
$$$$

     RDKit          3D

 38 41  0  0  0  0  0  0  0  0999 V2000
   38.2000   32.4660   55.2830 C   0  0  0  0  0  0  0  0  0  0  0  0
   40.7770   35.1930   63.0450 O   0  0  0  0  0  0  0  0  0  0  0  0
   39.4270   30.9550   49.3280 F   0  0  0  0  0  0  0  0  0  0  0  0
   39.2340   26.5690   54.5350 C   0  0  0  0  0  0  0  0  0  0  0  0
   37.7550   35.8930   61.1500 C   0  0  0  0  0  0  0  0  0  0  0  0
   38.0740   33.5980   60.3480 C   0  0  0  0  0  0  0  0  0  0  0  0
   38.6110   24.2410   57.2800 C   0  0  0  0  0  0  0  0  0  0  0  0
   37.4880   30.9930   59.2740 C   0  0  0  0  0  0  0  0  0  0  0  0
   38.8590   25.9480   55.6990 C   0  0  0  0  0  0  0  0  0  0  0  0
   39.8990   35.9080   62.6040 N   0  0  0  0  0  0  0  0  0  0  0  0
   40.5060   30.4460   51.0250 C   0  0  0  0  0  0  0  0  0  0  0  0
   40.0380   27.2520   56.2290 C   0  0  0  0  0  0  0  0  0  0  0  0
   37.0840   34.6160   60.6270 C   0  0  0  0  0  0  0  0  0  0  0  0
   39.3180   33.9070   61.3130 C   0  0  0  0  0  0  0  0  0  0  0  0
   36.2710   36.8370   59.1580 O   0  0  0  0  0  0  0  0  0  0  0  0
   37.7200   31.1540   55.3180 N   0  0  0  0  0  0  0  0  0  0  0  0
   37.4600   32.1850   60.3460 C   0  0  0  0  0  0  0  0  0  0  0  0
   40.9670   29.5560   48.9010 F   0  0  0  0  0  0  0  0  0  0  0  0
   39.2580   28.2100   51.6270 C   0  0  0  0  0  0  0  0  0  0  0  0
   37.8300   30.3080   54.2190 N   0  0  0  0  0  0  0  0  0  0  0  0
   39.4680   30.5430   52.1060 C   0  0  0  0  0  0  0  0  0  0  0  0
   37.9950   30.6140   56.6470 C   0  0  0  0  0  0  0  0  0  0  0  0
   39.5160   24.8920   56.2900 O   0  0  0  0  0  0  0  0  0  0  0  0
   37.4680   25.2160   55.2450 C   0  0  0  0  0  0  0  0  0  0  0  0
   38.5060   33.2670   56.5220 C   0  0  0  0  0  0  0  0  0  0  0  0
   39.4840   28.4220   50.1580 C   0  0  0  0  0  0  0  0  0  0  0  0
   38.2130   31.0790   57.9870 C   0  0  0  0  0  0  0  0  0  0  0  0
   39.0470   35.2870   61.7160 C   0  0  0  0  0  0  0  0  0  0  0  0
   39.9620   26.4060   53.2460 C   0  0  0  0  0  0  0  0  0  0  0  0
   38.0280   38.0060   59.8490 O   0  0  0  0  0  0  0  0  0  0  0  0
   38.5640   29.3180   53.9450 C   0  0  0  0  0  0  0  0  0  0  0  0
   38.9120   32.3500   57.8790 C   0  0  0  0  0  0  0  0  0  0  0  0
   37.5480   36.5460   62.3370 O   0  0  0  0  0  0  0  0  0  0  0  0
   38.3250   27.8300   54.5170 C   0  0  0  0  0  0  0  0  0  0  0  0
   39.1700   29.2470   52.5360 C   0  0  0  0  0  0  0  0  0  0  0  0
   39.1620   26.8270   51.9890 C   0  0  0  0  0  0  0  0  0  0  0  0
   40.0570   29.8640   49.8690 C   0  0  0  0  0  0  0  0  0  0  0  0
   37.1380   37.1600   59.9600 C   0  0  0  0  0  0  0  0  0  0  0  0
  1 16  1  0
  1 25  1  0
  3 37  1  0
  4  9  1  0
  5 28  1  0
  5 33  1  0
  6 17  1  0
  6 13  1  0
  6 14  1  0
  8 17  2  3
  9 12  1  0
  9 23  1  0
 10  2  1  0
 11 21  1  0
 13  5  1  0
 14 28  1  0
 15 38  2  0
 16 22  1  0
 18 37  1  0
 19 26  1  0
 19 36  1  0
 19 35  1  0
 20 16  1  0
 22 27  1  0
 23  7  1  0
 24  9  1  0
 25 32  1  0
 27  8  1  0
 28 10  1  0
 29  4  1  0
 30 38  1  0
 31 20  1  0
 31 34  1  0
 32 27  1  0
 34  4  1  0
 35 21  1  0
 35 31  1  0
 36 29  1  0
 37 26  1  0
 37 11  1  0
 38  5  1  0
M  END
$$$$

     RDKit          3D

 36 38  0  0  0  0  0  0  0  0999 V2000
   38.9450   37.2050   61.4100 C   0  0  0  0  0  0  0  0  0  0  0  0
   38.4950   32.7060   61.1700 C   0  0  0  0  0  0  0  0  0  0  0  0
   39.1250   26.9890   56.2810 N   0  0  0  0  0  0  0  0  0  0  0  0
   38.4690   32.0620   58.4280 C   0  0  0  0  0  0  0  0  0  0  0  0
   38.5040   31.5610   57.0820 O   0  0  0  0  0  0  0  0  0  0  0  0
   37.9260   31.5310   60.6990 C   0  0  0  0  0  0  0  0  0  0  0  0
   37.1490   38.7880   61.1960 F   0  0  0  0  0  0  0  0  0  0  0  0
   37.4410   31.4130   59.2450 C   0  0  0  0  0  0  0  0  0  0  0  0
   38.6080   35.0430   60.4520 C   0  0  0  0  0  0  0  0  0  0  0  0
   39.6350   27.1340   51.7890 C   0  0  0  0  0  0  0  0  0  0  0  0
   38.5690   32.4630   55.8920 C   0  0  0  0  0  0  0  0  0  0  0  0
   39.2020   27.0540   54.8950 C   0  0  0  0  0  0  0  0  0  0  0  0
   40.3930   30.2930   50.1830 C   0  0  0  0  0  0  0  0  0  0  0  0
   38.1630   33.6510   56.0820 O   0  0  0  0  0  0  0  0  0  0  0  0
   40.0590   27.8260   50.6200 C   0  0  0  0  0  0  0  0  0  0  0  0
   37.2760   30.0190   58.7410 C   0  0  0  0  0  0  0  0  0  0  0  0
   38.6670   28.1990   52.6410 S   0  0  0  0  0  0  0  0  0  0  0  0
   39.3820   35.9590   61.1610 C   0  0  0  0  0  0  0  0  0  0  0  0
   39.3930   32.5690   62.2980 O   0  0  0  0  0  0  0  0  0  0  0  0
   37.6680   30.5780   61.5410 O   0  0  0  0  0  0  0  0  0  0  0  0
   39.7500   28.8530   50.1320 C   0  0  0  0  0  0  0  0  0  0  0  0
   39.4580   30.6800   54.9600 C   0  0  0  0  0  0  0  0  0  0  0  0
   38.9860   33.6990   60.1300 C   0  0  0  0  0  0  0  0  0  0  0  0
   37.6750   37.6350   60.8990 C   0  0  0  0  0  0  0  0  0  0  0  0
   36.9470   36.7230   60.1420 C   0  0  0  0  0  0  0  0  0  0  0  0
   39.0400   29.3280   55.2120 N   0  0  0  0  0  0  0  0  0  0  0  0
   39.4800   31.1440   49.4620 O   0  0  0  0  0  0  0  0  0  0  0  0
   37.4040   35.5170   59.8760 C   0  0  0  0  0  0  0  0  0  0  0  0
   39.2940   28.3140   54.2680 C   0  0  0  0  0  0  0  0  0  0  0  0
   39.0740   25.8400   54.3950 C   0  0  0  0  0  0  0  0  0  0  0  0
   38.2840   31.6210   54.7860 C   0  0  0  0  0  0  0  0  0  0  0  0
   40.2480   30.7220   51.6550 C   0  0  0  0  0  0  0  0  0  0  0  0
   38.8340   25.7980   56.6180 C   0  0  0  0  0  0  0  0  0  0  0  0
   38.8170   25.0290   55.4310 C   0  0  0  0  0  0  0  0  0  0  0  0
   38.0070   25.1520   57.7650 C   0  0  0  0  0  0  0  0  0  0  0  0
   38.4490   33.5260   58.7810 O   0  0  0  0  0  0  0  0  0  0  0  0
  2 19  1  0
  3 33  1  0
  4  5  1  0
  4 36  1  0
  4  8  1  0
  6  2  1  0
  6 20  1  0
  8 16  1  0
  8  6  1  0
  9 18  2  0
 10 17  1  0
 11 14  2  0
 11  5  1  0
 12  3  2  0
 13 32  1  0
 15 10  1  0
 18  1  1  0
 21 13  1  0
 21 15  1  0
 22 26  1  0
 23  9  1  0
 23  2  1  0
 24  7  1  0
 24  1  2  0
 25 24  1  0
 27 13  1  0
 28 25  2  0
 28  9  1  0
 29 17  1  0
 29 12  1  0
 29 26  1  0
 30 12  1  0
 30 34  2  0
 31 22  1  0
 31 11  1  0
 33 35  1  0
 34 33  1  0
 36 23  1  0
M  END
$$$$

     RDKit          3D

 44 49  0  0  0  0  0  0  0  0999 V2000
   39.6400   31.2120   55.3040 C   0  0  0  0  0  0  0  0  0  0  0  0
   38.6600   30.8800   59.9000 C   0  0  0  0  0  0  0  0  0  0  0  0
   37.6870   33.0690   60.6960 C   0  0  0  0  0  0  0  0  0  0  0  0
   38.8320   26.8790   51.7510 O   0  0  0  0  0  0  0  0  0  0  0  0
   38.7260   27.8580   52.5570 C   0  0  0  0  0  0  0  0  0  0  0  0
   38.5770   29.1820   55.6040 C   0  0  0  0  0  0  0  0  0  0  0  0
   39.7540   30.3480   50.3150 C   0  0  0  0  0  0  0  0  0  0  0  0
   39.4830   28.1760   57.2750 C   0  0  0  0  0  0  0  0  0  0  0  0
   39.1460   28.0300   50.9840 C   0  0  0  0  0  0  0  0  0  0  0  0
   37.3520   38.9550   60.8840 N   0  0  0  0  0  0  0  0  0  0  0  0
   36.3170   30.5500   60.0880 O   0  0  0  0  0  0  0  0  0  0  0  0
   38.6610   28.0750   49.6800 O   0  0  0  0  0  0  0  0  0  0  0  0
   39.2640   30.1300   54.9100 O   0  0  0  0  0  0  0  0  0  0  0  0
   39.6620   29.7170   52.6190 O   0  0  0  0  0  0  0  0  0  0  0  0
   40.0690   29.1770   51.2690 C   0  0  0  0  0  0  0  0  0  0  0  0
   38.5080   33.6340   57.4620 C   0  0  0  0  0  0  0  0  0  0  0  0
   38.7450   30.5690   61.2820 O   0  0  0  0  0  0  0  0  0  0  0  0
   37.2770   36.8490   60.5090 N   0  0  0  0  0  0  0  0  0  0  0  0
   38.7590   27.9500   54.8400 C   0  0  0  0  0  0  0  0  0  0  0  0
   36.7880   35.5160   60.1320 C   0  0  0  0  0  0  0  0  0  0  0  0
   39.0200   24.3910   57.1420 O   0  0  0  0  0  0  0  0  0  0  0  0
   37.2630   28.1210   52.3270 O   0  0  0  0  0  0  0  0  0  0  0  0
   38.3040   31.9280   55.4820 C   0  0  0  0  0  0  0  0  0  0  0  0
   40.5690   30.0440   49.1050 C   0  0  0  0  0  0  0  0  0  0  0  0
   39.2470   36.1510   61.9400 C   0  0  0  0  0  0  0  0  0  0  0  0
   37.7090   24.2230   56.9410 C   0  0  0  0  0  0  0  0  0  0  0  0
   39.6450   25.4980   57.3810 C   0  0  0  0  0  0  0  0  0  0  0  0
   38.8080   26.8710   57.1050 C   0  0  0  0  0  0  0  0  0  0  0  0
   40.7640   25.7710   58.0890 O   0  0  0  0  0  0  0  0  0  0  0  0
   37.2880   30.2040   59.4680 C   0  0  0  0  0  0  0  0  0  0  0  0
   38.3880   38.4890   61.5080 C   0  0  0  0  0  0  0  0  0  0  0  0
   40.8170   28.0960   57.3330 C   0  0  0  0  0  0  0  0  0  0  0  0
   37.8690   34.4200   60.4540 C   0  0  0  0  0  0  0  0  0  0  0  0
   39.2640   28.5240   53.3150 C   0  0  0  0  0  0  0  0  0  0  0  0
   38.1990   32.5270   58.3900 C   0  0  0  0  0  0  0  0  0  0  0  0
   39.3000   34.8200   61.0210 C   0  0  0  0  0  0  0  0  0  0  0  0
   38.2630   37.2590   61.3790 C   0  0  0  0  0  0  0  0  0  0  0  0
   37.3860   31.2390   55.3740 F   0  0  0  0  0  0  0  0  0  0  0  0
   41.2570   27.1840   58.4220 C   0  0  0  0  0  0  0  0  0  0  0  0
   36.6340   37.9760   60.3800 C   0  0  0  0  0  0  0  0  0  0  0  0
   38.6580   29.3060   57.1140 C   0  0  0  0  0  0  0  0  0  0  0  0
   38.8160   33.2590   56.1980 C   0  0  0  0  0  0  0  0  0  0  0  0
   37.3700   29.4050   58.1400 C   0  0  0  0  0  0  0  0  0  0  0  0
   38.2640   32.2970   59.6390 N   0  0  0  0  0  0  0  0  0  0  0  0
  1 23  1  0
  2 17  1  0
  4  5  1  0
  5 22  1  0
  5 34  1  0
  6 19  1  0
  6 41  1  0
  8 28  1  0
  8 32  1  0
  9 12  1  0
  9 15  1  0
  9  4  1  0
  9  5  1  0
 10 31  1  0
 13  1  1  0
 13  6  1  0
 14 34  1  0
 15  7  1  0
 15 14  1  0
 16 35  1  0
 18 20  1  0
 18 37  1  0
 20 33  1  0
 23 38  1  0
 23 42  1  0
 24  7  1  0
 26 21  1  0
 27 21  1  0
 27 29  1  0
 28 27  1  0
 29 39  1  0
 30  2  1  0
 30 11  2  0
 32 39  1  0
 33  3  1  0
 33 36  1  0
 34 19  1  0
 35 44  1  0
 36 25  1  0
 37 31  1  0
 37 25  1  0
 40 18  1  0
 40 10  1  0
 41  8  1  0
 41 43  1  0
 42 16  1  0
 43 30  1  0
 44  2  1  0
 44  3  1  0
M  END
$$$$

     RDKit          3D

 33 36  0  0  0  0  0  0  0  0999 V2000
   39.2230   29.7920   52.8540 C   0  0  0  0  0  0  0  0  0  0  0  0
   39.3800   30.8350   60.1810 S   0  0  0  0  0  0  0  0  0  0  0  0
   40.3210   29.7390   50.7150 C   0  0  0  0  0  0  0  0  0  0  0  0
   41.1900   26.1740   58.1000 O   0  0  0  0  0  0  0  0  0  0  0  0
   38.7100   35.2300   61.7290 C   0  0  0  0  0  0  0  0  0  0  0  0
   39.3540   27.8640   58.1220 C   0  0  0  0  0  0  0  0  0  0  0  0
   37.0540   34.3090   59.6400 C   0  0  0  0  0  0  0  0  0  0  0  0
   38.7110   33.0200   58.9610 C   0  0  0  0  0  0  0  0  0  0  0  0
   40.3790   28.2560   50.5330 C   0  0  0  0  0  0  0  0  0  0  0  0
   38.2400   31.0580   57.6260 N   0  0  0  0  0  0  0  0  0  0  0  0
   37.9550   36.2530   61.5660 C   0  0  0  0  0  0  0  0  0  0  0  0
   40.1350   30.3780   51.9160 C   0  0  0  0  0  0  0  0  0  0  0  0
   38.5070   30.7060   54.2640 C   0  0  0  0  0  0  0  0  0  0  0  0
   38.3220   29.8140   56.9100 C   0  0  0  0  0  0  0  0  0  0  0  0
   38.9650   27.6750   51.1620 C   0  0  0  0  0  0  0  0  0  0  0  0
   36.9540   28.2030   53.1320 Cl  0  0  0  0  0  0  0  0  0  0  0  0
   36.3360   37.5770   60.3040 O   0  0  0  0  0  0  0  0  0  0  0  0
   38.5660   28.6000   52.2920 C   0  0  0  0  0  0  0  0  0  0  0  0
   37.9230   31.9220   54.9930 C   0  0  0  0  0  0  0  0  0  0  0  0
   39.9300   29.2440   59.9980 C   0  0  0  0  0  0  0  0  0  0  0  0
   39.6820   27.4310   56.6880 C   0  0  0  0  0  0  0  0  0  0  0  0
   38.5630   29.9730   55.3490 C   0  0  0  0  0  0  0  0  0  0  0  0
   37.1860   35.6620   59.3270 C   0  0  0  0  0  0  0  0  0  0  0  0
   40.5960   28.6240   58.6100 C   0  0  0  0  0  0  0  0  0  0  0  0
   38.3520   31.5180   59.1070 C   0  0  0  0  0  0  0  0  0  0  0  0
   37.4580   36.7660   60.2490 C   0  0  0  0  0  0  0  0  0  0  0  0
   41.6380   27.4650   58.6120 C   0  0  0  0  0  0  0  0  0  0  0  0
   40.9100   26.4250   56.6750 C   0  0  0  0  0  0  0  0  0  0  0  0
   38.7130   34.0940   61.1450 C   0  0  0  0  0  0  0  0  0  0  0  0
   36.5170   31.5050   59.8870 S   0  0  0  0  0  0  0  0  0  0  0  0
   38.0550   33.8350   60.0150 N   0  0  0  0  0  0  0  0  0  0  0  0
   40.3910   30.2360   49.3620 C   0  0  0  0  0  0  0  0  0  0  0  0
   38.1200   28.7100   58.2080 C   0  0  0  0  0  0  0  0  0  0  0  0
  1 13  1  0
  3 32  1  0
  3 12  1  0
  4 27  1  0
  6 21  1  0
  6 33  1  0
  6 24  1  0
  7 31  1  0
  8 25  1  0
  8 31  1  0
  9  3  1  0
  9 15  1  0
 10 25  1  0
 11  5  1  0
 12  1  2  0
 13 19  1  0
 13 22  2  3
 14 22  1  0
 14 10  1  0
 14 33  1  0
 15 18  1  0
 18  1  1  0
 18 16  1  0
 20  2  1  0
 23  7  1  0
 23 26  1  0
 24 27  1  0
 24 20  1  0
 25 30  1  0
 25  2  1  0
 26 17  1  0
 26 11  1  0
 28 21  1  0
 28  4  1  0
 29  5  2  0
 31 29  1  0
M  END
$$$$

     RDKit          3D

 64 69  0  0  0  0  0  0  0  0999 V2000
   39.9410   29.2180   55.6660 O   0  0  0  0  0  0  0  0  0  0  0  0
   36.8560   34.1010   60.8250 C   0  0  0  0  0  0  0  0  0  0  0  0
   40.4780   35.9740   65.9010 C   0  0  0  0  0  0  0  0  0  0  0  0
   39.7380   27.4960   49.9660 C   0  0  0  0  0  0  0  0  0  0  0  0
   38.4620   26.3230   54.4300 O   0  0  0  0  0  0  0  0  0  0  0  0
   35.8530   32.8150   60.0890 C   0  0  0  0  0  0  0  0  0  0  0  0
   38.5720   35.6600   60.2490 C   0  0  0  0  0  0  0  0  0  0  0  0
   38.4950   24.1040   56.7660 O   0  0  0  0  0  0  0  0  0  0  0  0
   39.4900   26.2600   46.6270 F   0  0  0  0  0  0  0  0  0  0  0  0
   40.1320   26.7040   56.2280 C   0  0  0  0  0  0  0  0  0  0  0  0
   37.9980   33.9400   55.2610 C   0  0  0  0  0  0  0  0  0  0  0  0
   39.2150   36.4900   63.4680 C   0  0  0  0  0  0  0  0  0  0  0  0
   40.7230   31.9030   61.1120 O   0  0  0  0  0  0  0  0  0  0  0  0
   38.3740   30.5200   56.6180 C   0  0  0  0  0  0  0  0  0  0  0  0
   39.5310   26.0360   52.6890 C   0  0  0  0  0  0  0  0  0  0  0  0
   40.6750   28.0520   47.8230 O   0  0  0  0  0  0  0  0  0  0  0  0
   40.6500   27.6040   59.6380 C   0  0  0  0  0  0  0  0  0  0  0  0
   40.0740   29.8750   49.1400 C   0  0  0  0  0  0  0  0  0  0  0  0
   40.1880   28.1710   56.3990 C   0  0  0  0  0  0  0  0  0  0  0  0
   37.1590   31.3130   55.0410 O   0  0  0  0  0  0  0  0  0  0  0  0
   41.8530   31.8890   63.4420 C   0  0  0  0  0  0  0  0  0  0  0  0
   40.2880   28.2190   60.5470 C   0  0  0  0  0  0  0  0  0  0  0  0
   37.6110   24.5890   55.9930 C   0  0  0  0  0  0  0  0  0  0  0  0
   38.5180   31.7790   62.5540 O   0  0  0  0  0  0  0  0  0  0  0  0
   39.6380   25.9230   54.0000 C   0  0  0  0  0  0  0  0  0  0  0  0
   38.9480   30.0340   60.7690 C   0  0  0  0  0  0  0  0  0  0  0  0
   36.1180   33.1570   61.6160 C   0  0  0  0  0  0  0  0  0  0  0  0
   40.2340   35.8210   67.3350 C   0  0  0  0  0  0  0  0  0  0  0  0
   38.2430   31.6070   61.1010 C   0  0  0  0  0  0  0  0  0  0  0  0
   35.6560   31.4660   59.7470 O   0  0  0  0  0  0  0  0  0  0  0  0
   38.3150   33.0680   56.2280 C   0  0  0  0  0  0  0  0  0  0  0  0
   40.1790   36.8660   61.5050 C   0  0  0  0  0  0  0  0  0  0  0  0
   39.3240   27.9260   51.1810 C   0  0  0  0  0  0  0  0  0  0  0  0
   41.2170   32.7800   62.1590 C   0  0  0  0  0  0  0  0  0  0  0  0
   40.3320   30.4440   53.9160 C   0  0  0  0  0  0  0  0  0  0  0  0
   41.1770   27.1860   58.2300 C   0  0  0  0  0  0  0  0  0  0  0  0
   41.8130   36.6520   65.8570 O   0  0  0  0  0  0  0  0  0  0  0  0
   40.1080   28.3960   48.9220 C   0  0  0  0  0  0  0  0  0  0  0  0
   39.8420   25.9640   55.3370 C   0  0  0  0  0  0  0  0  0  0  0  0
   38.9050   27.2100   52.2470 C   0  0  0  0  0  0  0  0  0  0  0  0
   38.0390   36.9730   63.2270 O   0  0  0  0  0  0  0  0  0  0  0  0
   38.6800   32.0810   57.7530 C   0  0  0  0  0  0  0  0  0  0  0  0
   42.3950   26.1400   58.7550 C   0  0  0  0  0  0  0  0  0  0  0  0
   38.5690   31.5300   55.5200 C   0  0  0  0  0  0  0  0  0  0  0  0
   40.6300   26.5050   47.4980 C   0  0  0  0  0  0  0  0  0  0  0  0
   38.4190   34.2910   60.5490 C   0  0  0  0  0  0  0  0  0  0  0  0
   39.4770   29.3840   51.5970 C   0  0  0  0  0  0  0  0  0  0  0  0
   37.7040   25.9530   55.2120 C   0  0  0  0  0  0  0  0  0  0  0  0
   39.2240   36.2710   61.3940 C   0  0  0  0  0  0  0  0  0  0  0  0
   36.2100   35.1570   59.9760 C   0  0  0  0  0  0  0  0  0  0  0  0
   39.4930   36.4070   62.7740 C   0  0  0  0  0  0  0  0  0  0  0  0
   38.4570   28.5360   60.4680 S   0  0  0  0  0  0  0  0  0  0  0  0
   39.6770   30.2090   50.4810 C   0  0  0  0  0  0  0  0  0  0  0  0
   38.0110   32.6620   59.2920 C   0  0  0  0  0  0  0  0  0  0  0  0
   40.1520   30.4600   60.9500 C   0  0  0  0  0  0  0  0  0  0  0  0
   38.6960   29.6870   52.4530 O   0  0  0  0  0  0  0  0  0  0  0  0
   39.3550   36.8150   65.2810 C   0  0  0  0  0  0  0  0  0  0  0  0
   38.1030   29.6010   56.9350 O   0  0  0  0  0  0  0  0  0  0  0  0
   40.5930   34.7560   65.2030 O   0  0  0  0  0  0  0  0  0  0  0  0
   37.8530   32.0570   60.3800 O   0  0  0  0  0  0  0  0  0  0  0  0
   40.8510   29.2730   61.1440 C   0  0  0  0  0  0  0  0  0  0  0  0
   39.4450   30.7260   52.9460 C   0  0  0  0  0  0  0  0  0  0  0  0
   38.6720   33.8690   59.3490 O   0  0  0  0  0  0  0  0  0  0  0  0
   41.1400   27.3160   56.9260 C   0  0  0  0  0  0  0  0  0  0  0  0
  2 50  1  0
  2 27  1  0
  3 28  1  0
  4 33  1  0
  5 48  1  0
  6 30  1  0
  6  2  1  0
  6 27  1  0
  9 45  1  0
 10 39  1  0
 10 19  1  0
 10 64  1  0
 11 31  2  0
 12 41  1  0
 12 57  1  0
 13 34  1  0
 14 58  2  0
 14 42  1  0
 16 38  1  0
 17 22  2  0
 18 53  2  0
 19  1  1  0
 19 64  1  0
 22 61  1  0
 23  8  2  0
 25 15  1  0
 25  5  1  0
 25 39  1  0
 26 55  2  0
 26 29  1  0
 29 24  2  0
 31 42  1  0
 32 51  1  0
 33 47  2  0
 33 40  1  0
 34 21  1  0
 36 43  1  0
 36 17  2  0
 37  3  1  0
 38 18  1  0
 38  4  2  0
 40 15  1  0
 42 54  1  0
 44 20  1  0
 44 31  1  0
 44 14  1  0
 45 16  1  0
 46  7  1  0
 46  2  1  0
 47 56  1  0
 48 23  1  0
 49  7  1  0
 49 32  1  0
 49 51  1  0
 51 12  1  0
 52 22  1  0
 52 26  1  0
 53 47  1  0
 54 63  1  0
 54 60  1  0
 55 13  1  0
 55 61  1  0
 56 62  1  0
 57  3  1  0
 59  3  1  0
 60 29  1  0
 62 35  2  0
 63 46  1  0
 64 36  1  0
M  END
$$$$

     RDKit          3D

 21 20  0  0  0  0  0  0  0  0999 V2000
   38.0540   33.4690   57.9560 C   0  0  0  0  0  0  0  0  0  0  0  0
   38.4260   33.1660   59.4380 C   0  0  0  0  0  0  0  0  0  0  0  0
   39.7560   28.4040   50.1750 C   0  0  0  0  0  0  0  0  0  0  0  0
   36.3870   36.0090   60.0970 O   0  0  0  0  0  0  0  0  0  0  0  0
   39.6360   28.2230   51.4880 C   0  0  0  0  0  0  0  0  0  0  0  0
   40.2390   29.7450   49.6290 C   0  0  0  0  0  0  0  0  0  0  0  0
   38.0590   34.3900   60.2590 C   0  0  0  0  0  0  0  0  0  0  0  0
   38.2780   32.1360   55.8090 C   0  0  0  0  0  0  0  0  0  0  0  0
   35.9680   33.9420   59.1700 O   0  0  0  0  0  0  0  0  0  0  0  0
   39.2890   31.0770   55.3730 C   0  0  0  0  0  0  0  0  0  0  0  0
   40.0850   30.9290   52.6220 O   0  0  0  0  0  0  0  0  0  0  0  0
   39.0410   29.0720   52.3290 N   0  0  0  0  0  0  0  0  0  0  0  0
   38.9320   35.2570   61.2450 C   0  0  0  0  0  0  0  0  0  0  0  0
   38.9810   32.7070   57.0070 C   0  0  0  0  0  0  0  0  0  0  0  0
   40.4360   35.1990   60.9790 C   0  0  0  0  0  0  0  0  0  0  0  0
   39.4190   30.0300   53.1250 C   0  0  0  0  0  0  0  0  0  0  0  0
   38.4410   28.8460   54.9670 C   0  0  0  0  0  0  0  0  0  0  0  0
   38.4300   36.6890   61.5000 C   0  0  0  0  0  0  0  0  0  0  0  0
   36.6850   34.7980   59.8090 C   0  0  0  0  0  0  0  0  0  0  0  0
   38.9700   29.9720   54.5340 C   0  0  0  0  0  0  0  0  0  0  0  0
   37.3990   28.3210   54.1210 O   0  0  0  0  0  0  0  0  0  0  0  0
  1  2  1  0
  3  5  1  0
  5 12  1  0
  6  3  1  0
  7  2  1  0
  7 13  1  0
  8 14  1  0
  9 19  2  0
 10  8  1  0
 11 16  2  0
 12 16  1  0
 13 18  1  0
 14  1  1  0
 15 13  1  0
 16 20  1  0
 19  4  1  0
 19  7  1  0
 20 17  1  0
 20 10  1  0
 21 17  1  0
M  END
$$$$

     RDKit          3D

 11 10  0  0  0  0  0  0  0  0999 V2000
   36.9860   35.4470   59.7910 C   0  0  0  0  0  0  0  0  0  0  0  0
   39.6870   36.8640   62.1480 C   0  0  0  0  0  0  0  0  0  0  0  0
   38.2790   31.4560   57.7330 N   0  0  0  0  0  0  0  0  0  0  0  0
   38.4760   32.2070   58.9570 C   0  0  0  0  0  0  0  0  0  0  0  0
   38.0400   34.3570   59.9240 C   0  0  0  0  0  0  0  0  0  0  0  0
   37.9390   33.5600   58.7700 C   0  0  0  0  0  0  0  0  0  0  0  0
   37.7720   30.0440   58.1270 C   0  0  0  0  0  0  0  0  0  0  0  0
   37.8870   36.9000   62.0040 S   0  0  0  0  0  0  0  0  0  0  0  0
   38.5160   31.8370   56.4040 C   0  0  0  0  0  0  0  0  0  0  0  0
   37.4410   37.6660   59.5020 O   0  0  0  0  0  0  0  0  0  0  0  0
   37.4990   36.6670   60.2930 C   0  0  0  0  0  0  0  0  0  0  0  0
  1  5  1  0
  1 11  1  0
  3  7  1  0
  3  4  1  0
  6  4  1  0
  6  5  1  0
  8  2  1  0
  9  3  1  0
 10 11  2  0
 11  8  1  0
M  END
$$$$

     RDKit          3D

 34 38  0  0  0  0  0  0  0  0999 V2000
   38.0160   38.9810   62.4250 C   0  0  0  0  0  0  0  0  0  0  0  0
   38.8300   32.1700   57.3470 C   0  0  0  0  0  0  0  0  0  0  0  0
   38.8990   28.3860   52.3600 C   0  0  0  0  0  0  0  0  0  0  0  0
   38.2320   31.2170   55.8680 S   0  0  0  0  0  0  0  0  0  0  0  0
   37.9270   26.9690   57.0700 C   0  0  0  0  0  0  0  0  0  0  0  0
   40.1100   30.4600   51.0670 C   0  0  0  0  0  0  0  0  0  0  0  0
   38.3650   33.5040   57.2970 C   0  0  0  0  0  0  0  0  0  0  0  0
   36.3780   36.3920   59.7870 C   0  0  0  0  0  0  0  0  0  0  0  0
   38.4880   32.6510   54.7770 C   0  0  0  0  0  0  0  0  0  0  0  0
   38.8550   28.5680   55.3580 C   0  0  0  0  0  0  0  0  0  0  0  0
   38.3040   24.9740   56.0420 N   0  0  0  0  0  0  0  0  0  0  0  0
   37.0630   37.2350   60.6900 N   0  0  0  0  0  0  0  0  0  0  0  0
   39.2020   28.3360   51.0670 C   0  0  0  0  0  0  0  0  0  0  0  0
   37.6990   34.2450   58.2160 C   0  0  0  0  0  0  0  0  0  0  0  0
   37.7890   36.4780   61.7980 C   0  0  0  0  0  0  0  0  0  0  0  0
   38.5620   33.7630   55.7590 C   0  0  0  0  0  0  0  0  0  0  0  0
   39.9210   27.8360   55.0210 N   0  0  0  0  0  0  0  0  0  0  0  0
   37.9080   28.3000   56.5350 C   0  0  0  0  0  0  0  0  0  0  0  0
   37.5290   25.0850   55.0900 O   0  0  0  0  0  0  0  0  0  0  0  0
   40.1040   26.4170   55.4450 C   0  0  0  0  0  0  0  0  0  0  0  0
   37.9880   23.9790   56.8260 O   0  0  0  0  0  0  0  0  0  0  0  0
   39.7820   29.3340   50.3280 C   0  0  0  0  0  0  0  0  0  0  0  0
   38.9060   34.3860   60.5050 C   0  0  0  0  0  0  0  0  0  0  0  0
   36.2280   34.8870   60.1850 C   0  0  0  0  0  0  0  0  0  0  0  0
   39.1830   35.6980   61.3020 C   0  0  0  0  0  0  0  0  0  0  0  0
   37.7200   37.7330   62.8300 C   0  0  0  0  0  0  0  0  0  0  0  0
   37.9080   38.2420   59.8920 C   0  0  0  0  0  0  0  0  0  0  0  0
   39.9260   30.5670   52.4350 C   0  0  0  0  0  0  0  0  0  0  0  0
   40.1590   29.2660   49.0420 F   0  0  0  0  0  0  0  0  0  0  0  0
   37.5210   34.1140   59.7290 C   0  0  0  0  0  0  0  0  0  0  0  0
   38.9880   29.9420   54.6950 C   0  0  0  0  0  0  0  0  0  0  0  0
   38.3560   39.3180   60.9520 C   0  0  0  0  0  0  0  0  0  0  0  0
   39.2860   29.4950   53.1470 C   0  0  0  0  0  0  0  0  0  0  0  0
   39.1180   26.0580   56.5100 C   0  0  0  0  0  0  0  0  0  0  0  0
  1 26  2  0
  3 33  1  0
  4 31  1  0
  4  2  1  0
  6 28  1  0
  7  2  1  0
  7 14  1  0
  8 24  1  0
  9 16  1  0
  9  4  1  0
 10 31  1  0
 10 18  1  0
 11 21  2  0
 12  8  1  0
 12 15  1  0
 13  3  2  0
 15 25  1  0
 15 26  1  0
 16  7  1  0
 17 10  1  0
 17 20  1  0
 18  5  1  0
 19 11  2  0
 20 34  1  0
 22  6  2  0
 22 13  1  0
 23 25  1  0
 27 12  1  0
 27 32  1  0
 28 33  2  0
 29 22  1  0
 30 14  1  0
 30 24  1  0
 30 23  1  0
 31 33  1  0
 32  1  1  0
 34 11  1  0
 34  5  1  0
M  END
$$$$

     RDKit          3D

 25 26  0  0  0  0  0  0  0  0999 V2000
   37.4700   28.7640   54.6090 C   0  0  0  0  0  0  0  0  0  0  0  0
   39.2670   30.5200   61.3260 C   0  0  0  0  0  0  0  0  0  0  0  0
   39.5900   28.1350   50.6140 C   0  0  0  0  0  0  0  0  0  0  0  0
   36.7410   36.8110   59.3600 O   0  0  0  0  0  0  0  0  0  0  0  0
   36.6810   35.4980   59.1520 C   0  0  0  0  0  0  0  0  0  0  0  0
   38.4960   27.5010   51.3420 O   0  0  0  0  0  0  0  0  0  0  0  0
   39.9840   29.3890   51.5020 C   0  0  0  0  0  0  0  0  0  0  0  0
   41.1330   31.9600   61.7170 C   0  0  0  0  0  0  0  0  0  0  0  0
   38.1910   33.2880   59.0450 N   0  0  0  0  0  0  0  0  0  0  0  0
   37.3180   37.2030   60.5210 C   0  0  0  0  0  0  0  0  0  0  0  0
   38.6490   27.7440   52.7860 C   0  0  0  0  0  0  0  0  0  0  0  0
   38.0450   32.2470   60.4480 C   0  0  0  0  0  0  0  0  0  0  0  0
   39.7040   26.7920   53.2770 C   0  0  0  0  0  0  0  0  0  0  0  0
   39.6620   32.3220   60.9210 C   0  0  0  0  0  0  0  0  0  0  0  0
   37.6840   31.4230   58.1650 O   0  0  0  0  0  0  0  0  0  0  0  0
   37.5700   27.4600   53.7610 C   0  0  0  0  0  0  0  0  0  0  0  0
   39.0420   31.5750   55.7580 C   0  0  0  0  0  0  0  0  0  0  0  0
   38.9900   29.2420   52.8940 C   0  0  0  0  0  0  0  0  0  0  0  0
   37.1890   34.3620   59.0930 C   0  0  0  0  0  0  0  0  0  0  0  0
   40.0120   30.6950   50.6150 C   0  0  0  0  0  0  0  0  0  0  0  0
   38.6010   32.7620   56.7700 N   0  0  0  0  0  0  0  0  0  0  0  0
   38.1190   31.0930   54.8780 C   0  0  0  0  0  0  0  0  0  0  0  0
   41.7830   33.3070   62.0810 C   0  0  0  0  0  0  0  0  0  0  0  0
   38.5240   29.8250   54.2510 C   0  0  0  0  0  0  0  0  0  0  0  0
   38.1860   32.4170   57.8870 C   0  0  0  0  0  0  0  0  0  0  0  0
  3  6  1  0
  3  7  1  0
  4 10  1  0
  5  4  1  0
  6 11  1  0
  7 20  1  0
  7 18  1  0
  8 23  1  0
  9 19  1  0
  9 12  1  0
 11 18  1  0
 11 13  1  0
 11 16  1  0
 12 14  1  0
 14  2  1  0
 14  8  1  0
 16  1  1  0
 17 21  1  0
 18 24  1  0
 19  5  1  0
 21 25  1  0
 22 17  1  0
 24  1  1  0
 24 22  1  0
 25 15  2  0
 25  9  1  0
M  END
$$$$

     RDKit          3D

 39 42  0  0  0  0  0  0  0  0999 V2000
   39.0040   34.0210   61.5870 C   0  0  0  0  0  0  0  0  0  0  0  0
   36.4990   34.3230   60.6220 C   0  0  0  0  0  0  0  0  0  0  0  0
   39.9390   30.6220   49.7520 C   0  0  0  0  0  0  0  0  0  0  0  0
   37.5720   29.1810   51.6760 C   0  0  0  0  0  0  0  0  0  0  0  0
   40.7940   27.2210   49.0020 O   0  0  0  0  0  0  0  0  0  0  0  0
   40.8730   36.7490   62.7710 O   0  0  0  0  0  0  0  0  0  0  0  0
   34.7980   32.8460   60.6240 O   0  0  0  0  0  0  0  0  0  0  0  0
   39.2910   29.6680   56.5100 C   0  0  0  0  0  0  0  0  0  0  0  0
   37.1680   36.7830   59.8380 O   0  0  0  0  0  0  0  0  0  0  0  0
   38.1490   36.1080   60.7030 C   0  0  0  0  0  0  0  0  0  0  0  0
   40.2000   29.0090   54.3540 C   0  0  0  0  0  0  0  0  0  0  0  0
   40.0410   36.1060   62.1390 C   0  0  0  0  0  0  0  0  0  0  0  0
   39.5650   30.1920   52.4840 C   0  0  0  0  0  0  0  0  0  0  0  0
   40.0340   34.7690   62.1100 C   0  0  0  0  0  0  0  0  0  0  0  0
   39.3680   31.0880   48.5100 O   0  0  0  0  0  0  0  0  0  0  0  0
   40.7580   28.5310   49.0950 C   0  0  0  0  0  0  0  0  0  0  0  0
   36.8720   36.3040   58.4090 C   0  0  0  0  0  0  0  0  0  0  0  0
   38.6500   31.6220   57.8780 C   0  0  0  0  0  0  0  0  0  0  0  0
   39.0730   29.3770   54.7650 C   0  0  0  0  0  0  0  0  0  0  0  0
   35.9670   35.2940   58.1460 C   0  0  0  0  0  0  0  0  0  0  0  0
   39.8360   28.0970   51.0940 C   0  0  0  0  0  0  0  0  0  0  0  0
   41.1200   34.0910   62.6990 C   0  0  0  0  0  0  0  0  0  0  0  0
   37.8370   32.0730   59.1490 C   0  0  0  0  0  0  0  0  0  0  0  0
   38.8680   26.8790   50.7510 C   0  0  0  0  0  0  0  0  0  0  0  0
   39.0090   30.6770   54.0120 C   0  0  0  0  0  0  0  0  0  0  0  0
   36.6460   29.7050   58.8310 C   0  0  0  0  0  0  0  0  0  0  0  0
   39.3890   28.0940   53.4930 C   0  0  0  0  0  0  0  0  0  0  0  0
   41.3400   29.0130   48.2690 O   0  0  0  0  0  0  0  0  0  0  0  0
   37.2690   30.8170   59.8220 C   0  0  0  0  0  0  0  0  0  0  0  0
   39.0680   36.8700   61.3980 C   0  0  0  0  0  0  0  0  0  0  0  0
   36.0260   33.9760   59.1590 C   0  0  0  0  0  0  0  0  0  0  0  0
   37.0220   29.6630   57.5170 C   0  0  0  0  0  0  0  0  0  0  0  0
   36.8160   33.0630   58.7580 O   0  0  0  0  0  0  0  0  0  0  0  0
   38.3640   32.7300   56.8210 C   0  0  0  0  0  0  0  0  0  0  0  0
   38.3620   30.3190   57.3250 C   0  0  0  0  0  0  0  0  0  0  0  0
   35.7930   33.3600   61.5060 C   0  0  0  0  0  0  0  0  0  0  0  0
   39.0210   28.8180   52.2320 C   0  0  0  0  0  0  0  0  0  0  0  0
   37.8700   34.7400   61.0760 C   0  0  0  0  0  0  0  0  0  0  0  0
   39.7440   29.1330   49.9140 C   0  0  0  0  0  0  0  0  0  0  0  0
  1 14  2  0
  2 38  1  0
  2 36  1  0
  5 16  1  0
  7 36  1  0
  9 10  1  0
 10 38  1  0
 10 30  1  0
 11 19  1  0
 12  6  2  0
 13 25  1  0
 14 12  1  0
 14 22  1  0
 15  3  1  0
 16 39  1  0
 17  9  1  0
 18 34  1  0
 18 23  1  0
 19  8  1  0
 20 17  1  0
 20 31  1  0
 21 24  1  0
 21 37  1  0
 23 33  1  0
 23 29  1  0
 25 19  1  0
 26 29  1  0
 27 11  1  0
 28 16  2  0
 30 12  1  0
 31 33  1  0
 31  2  1  0
 32 26  1  0
 35  8  1  0
 35 32  1  0
 35 18  1  0
 37  4  1  0
 37 13  1  0
 37 27  1  0
 38  1  1  0
 39  3  1  0
 39 21  1  0
M  END
$$$$
