DiffSBDD_19_num_sample_100
     RDKit          3D

  0  0  0  0  0  0  0  0  0  0999 V3000
M  V30 BEGIN CTAB
M  V30 COUNTS 54 57 0 0 1
M  V30 BEGIN ATOM
M  V30 1 C 9.470683 6.620505 -11.117192 0
M  V30 2 C 11.834824 9.113843 -9.153021 0
M  V30 3 C 6.738818 3.788244 -12.766346 0 CFG=1
M  V30 4 N 11.128406 8.031847 -6.992207 0
M  V30 5 C 8.043578 5.914413 -13.001873 0 CFG=1
M  V30 6 C 6.670193 6.823920 -14.973506 0
M  V30 7 C 8.117573 4.364072 -13.112190 0 CFG=1
M  V30 8 O 10.836563 6.260349 -5.413277 0
M  V30 9 C 6.653260 6.362272 -13.511077 0 CFG=1
M  V30 10 C 9.225678 3.674786 -12.291673 0
M  V30 11 S 5.507781 4.969302 -13.341072 0
M  V30 12 C 6.497029 2.394656 -13.367367 0
M  V30 13 C 11.740395 6.441384 -3.192894 0
M  V30 14 C 12.348521 7.216913 -2.197524 0
M  V30 15 C 10.754642 8.372131 -8.360376 0 CFG=2
M  V30 16 C 10.329637 6.032169 -7.759435 0
M  V30 17 C 11.434866 8.945155 -6.037445 0
M  V30 18 N 8.254338 6.376658 -11.629901 0
M  V30 19 O 10.515962 6.569301 -11.767033 0
M  V30 20 C 11.434841 7.010457 -4.439827 0
M  V30 21 C 12.634838 8.569721 -2.436856 0
M  V30 22 C 12.331443 9.142373 -3.685025 0
M  V30 23 C 10.569499 6.969436 -8.955853 0 CFG=1
M  V30 24 N 9.415426 6.883374 -9.811187 0
M  V30 25 C 11.230911 6.621265 -6.697083 0 CFG=1
M  V30 26 C 11.741948 8.359097 -4.691672 0
M  V30 27 O 11.469480 10.160418 -6.229514 0
M  V30 28 H 11.650540 9.041326 -10.225059 0
M  V30 29 H 11.834838 10.169304 -8.908003 0
M  V30 30 H 12.832103 8.715766 -8.963365 0
M  V30 31 H 6.632742 3.744750 -11.681787 0
M  V30 32 H 8.816199 6.347781 -13.629999 0
M  V30 33 H 7.300141 7.705162 -15.091393 0
M  V30 34 H 7.053045 6.044777 -15.633489 0
M  V30 35 H 5.669248 7.090166 -15.313332 0
M  V30 36 H 8.309851 4.147716 -14.163937 0
M  V30 37 H 6.272183 7.187034 -12.906202 0
M  V30 38 H 9.064820 3.771219 -11.217547 0
M  V30 39 H 9.277092 2.608528 -12.510030 0
M  V30 40 H 10.204882 4.089121 -12.525338 0
M  V30 41 H 7.187896 1.656626 -12.959778 0
M  V30 42 H 5.487027 2.044398 -13.154984 0
M  V30 43 H 6.622518 2.404799 -14.450841 0
M  V30 44 H 11.513531 5.406991 -3.001437 0
M  V30 45 H 12.597559 6.772833 -1.248955 0
M  V30 46 H 9.812724 8.925000 -8.353617 0
M  V30 47 H 10.584586 4.991713 -7.960054 0
M  V30 48 H 9.296435 6.084878 -7.409042 0
M  V30 49 H 7.443767 6.454662 -11.025971 0
M  V30 50 H 13.095058 9.167465 -1.666228 0
M  V30 51 H 12.564324 10.169299 -3.872866 0
M  V30 52 H 11.483736 6.654972 -9.457135 0
M  V30 53 H 8.498911 6.950261 -9.371052 0
M  V30 54 H 12.262570 6.318974 -6.856377 0
M  V30 END ATOM
M  V30 BEGIN BOND
M  V30 1 1 7 3
M  V30 2 1 7 5
M  V30 3 1 9 5
M  V30 4 1 9 6
M  V30 5 1 10 7
M  V30 6 1 11 3
M  V30 7 1 11 9
M  V30 8 1 12 3
M  V30 9 1 14 13
M  V30 10 1 15 2
M  V30 11 1 15 4
M  V30 12 1 17 4
M  V30 13 1 18 1
M  V30 14 1 18 5
M  V30 15 2 19 1
M  V30 16 1 20 8
M  V30 17 2 20 13
M  V30 18 2 21 14
M  V30 19 1 22 21
M  V30 20 1 23 15
M  V30 21 1 23 16
M  V30 22 1 24 1
M  V30 23 1 24 23
M  V30 24 1 25 4
M  V30 25 1 25 8
M  V30 26 1 25 16
M  V30 27 1 26 17
M  V30 28 1 26 20
M  V30 29 2 26 22
M  V30 30 2 27 17
M  V30 31 1 28 2
M  V30 32 1 29 2
M  V30 33 1 30 2
M  V30 34 1 3 31 CFG=1
M  V30 35 1 5 32 CFG=3
M  V30 36 1 33 6
M  V30 37 1 34 6
M  V30 38 1 35 6
M  V30 39 1 7 36 CFG=3
M  V30 40 1 9 37 CFG=1
M  V30 41 1 38 10
M  V30 42 1 39 10
M  V30 43 1 40 10
M  V30 44 1 41 12
M  V30 45 1 42 12
M  V30 46 1 43 12
M  V30 47 1 44 13
M  V30 48 1 45 14
M  V30 49 1 15 46 CFG=1
M  V30 50 1 47 16
M  V30 51 1 48 16
M  V30 52 1 49 18
M  V30 53 1 50 21
M  V30 54 1 51 22
M  V30 55 1 23 52 CFG=3
M  V30 56 1 53 24
M  V30 57 1 25 54 CFG=3
M  V30 END BOND
M  V30 END CTAB
M  END
>  <i_epik_Tot_Q>  (1) 
0

>  <i_epik_Tot_abs_Q>  (1) 
0

>  <i_i_glide_confnum>  (1) 
39

>  <i_i_glide_lignum>  (1) 
31

>  <i_i_glide_posenum>  (1) 
170

>  <i_i_glide_rotatable_bonds>  (1) 
4

>  <i_lp_mmshare_version>  (1) 
72125

>  <i_m_source_file_index>  (1) 
20

>  <i_f3d_flags>  (1) 
0

>  <num_sample>  (1) 
100

>  <b_lp_Chiralities_Consistent>  (1) 
1

>  <r_epik_Charging_Adjusted_Penalty>  (1) 
0

>  <r_epik_Ionization_Penalty>  (1) 
1.7464855434589993e-05

>  <r_epik_Ionization_Penalty_Charging>  (1) 
0

>  <r_epik_Ionization_Penalty_Neutral>  (1) 
1.7464855434589993e-05

>  <r_epik_State_Penalty>  (1) 
-0

>  <r_glide_ring_energy>  (1) 
0

>  <r_i_docking_score>  (1) 
-8.6915308586735591

>  <r_i_glide_ecoul>  (1) 
-5.7913351132311366

>  <r_i_glide_eff_state_penalty>  (1) 
-0

>  <r_i_glide_einternal>  (1) 
24.107354169344092

>  <r_i_glide_emodel>  (1) 
-53.763086623342751

>  <r_i_glide_emodel_strain>  (1) 
0.49092433017103332

>  <r_i_glide_energy>  (1) 
-46.703285632033172

>  <r_i_glide_erotb>  (1) 
0.51395476033457277

>  <r_i_glide_esite>  (1) 
-0.2374731775293788

>  <r_i_glide_evdw>  (1) 
-40.911950518802037

>  <r_i_glide_gscore>  (1) 
-8.6915308586735591

>  <r_i_glide_gscore_strain>  (1) 
0

>  <r_i_glide_hbond>  (1) 
-0.20647329909092307

>  <r_i_glide_ligand_efficiency>  (1) 
-0.32190855032124294

>  <r_i_glide_ligand_efficiency_ln>  (1) 
-2.0232450928141925

>  <r_i_glide_ligand_efficiency_sa>  (1) 
-0.96572565096372898

>  <r_i_glide_lipo>  (1) 
-3.1925834193292091

>  <r_i_glide_metal>  (1) 
-0

>  <r_i_glide_rewards>  (1) 
-2.6546579301338484

>  <r_lp_Energy>  (1) 
24.337422

>  <r_lp_tautomer_probability>  (1) 
1

>  <s_epik_Chemistry_Notes>  (1) 
This compound contains an acetal/aminal-like group ( X-CH(R)-Y where X, Y are N, S, or O) that may be acid/base labile, releasing an aldehyde.

>  <s_epik_cmdline>  (1) 
J2VwaWtfcHl0aG9uJywgJy1waHQnLCAnMS4wJywgJy1waCcsICc3LjQnLCAnLXRuJywgJzgnLCAnLW1hJywgJzUwMCcsICctaW1hZScsICc8aW5maWxlLm1hZT4nLCAnLW9tYWUnLCAnPG91dGZpbGUubWFlPic=

>  <s_epik_input>  (1) 
W0NIM11bQ0BIXTFbQ0BIXShbQ0gzXSlbQ0BASF0oW0NASF0oUzEpW0NIM10pW05IXUMoPU8pW05IXVtDQEBIXShbQ0BASF0yW0NIM10pW0NIMl1bQ0BASF0oTjIzKU9jNGMoQzM9TylbY0hdW2NIXVtjSF1bY0hdNA==

>  <s_glide_docking_method>  (1) 
confgen

>  <s_i_glide_gridfile>  (1) 
gpcr_drd2_6luq_protein_autoprepared_prepared

>  <s_lp_Force_Field>  (1) 
S-OPLS

>  <s_lp_Variant>  (1) 
DiffSBDD_19_num_sample_100-1

>  <s_m_source_file>  (1) 
generated__ligand_DiffSBDD_2026-05-06_prepared.sdf

>  <GenAI_Model>  (1) 
DiffSBDD

>  <Protein>  (1) 
generic_title2

$$$$
DiffSBDD_17_num_sample_100
     RDKit          3D

  0  0  0  0  0  0  0  0  0  0999 V3000
M  V30 BEGIN CTAB
M  V30 COUNTS 55 57 0 0 1
M  V30 BEGIN ATOM
M  V30 1 N 8.076568 4.669867 -12.206527 0
M  V30 2 C 9.834835 5.878601 -9.897622 0
M  V30 3 C 12.741418 8.186053 -1.698437 0
M  V30 4 C 10.997579 7.746962 -6.016114 0
M  V30 5 C 11.002918 9.162954 -5.881985 0
M  V30 6 C 7.184090 5.344874 -15.889090 0
M  V30 7 N 12.234852 9.369306 -2.417751 0
M  V30 8 C 5.882079 6.112329 -15.611435 0
M  V30 9 C 11.844124 7.584633 -3.746732 0
M  V30 10 F 7.034839 7.890872 -14.691668 0
M  V30 11 N 9.521604 7.217889 -9.459284 0
M  V30 12 C 6.405836 6.267380 -13.131191 0
M  V30 13 C 7.823204 4.805418 -14.622287 0
M  V30 14 C 11.834842 8.922301 -3.631092 0
M  V30 15 O 8.571715 2.413891 -12.691667 0
M  V30 16 C 8.721725 4.850890 -9.762649 0 CFG=2
M  V30 17 C 7.479074 5.201526 -13.371377 0
M  V30 18 C 7.620326 4.973076 -10.837290 0
M  V30 19 C 9.945871 7.779566 -8.269197 0
M  V30 20 C 8.169772 4.796326 -8.332007 0
M  V30 21 C 11.434832 6.949518 -4.928089 0
M  V30 22 C 12.320965 6.863047 -2.529608 0
M  V30 23 N 9.119236 3.728380 -12.380770 0
M  V30 24 C 11.434297 9.752666 -4.681452 0
M  V30 25 C 6.048898 7.041715 -14.411196 0 CFG=2
M  V30 26 C 10.543677 7.112656 -7.257174 0
M  V30 27 H 10.634839 5.521666 -9.271388 0
M  V30 28 H 10.209053 5.923064 -10.920759 0
M  V30 29 H 12.353213 8.189726 -0.691667 0
M  V30 30 H 13.818631 8.323534 -1.653721 0
M  V30 31 H 10.680909 9.785264 -6.691666 0
M  V30 32 H 7.907900 5.986958 -16.388279 0
M  V30 33 H 6.986017 4.514304 -16.566210 0
M  V30 34 H 12.754275 10.237825 -2.367400 0
M  V30 35 H 5.576356 6.672147 -16.495847 0
M  V30 36 H 5.080878 5.409951 -15.389282 0
M  V30 37 H 5.516503 5.778856 -12.731953 0
M  V30 38 H 6.733489 7.008446 -12.402558 0
M  V30 39 H 8.587128 4.056710 -14.761195 0
M  V30 40 H 9.034767 1.866102 -12.063858 0
M  V30 41 H 9.246118 3.911989 -9.915224 0
M  V30 42 H 7.186527 5.963404 -10.734262 0
M  V30 43 H 6.816798 4.272364 -10.609374 0
M  V30 44 H 9.745124 8.835946 -8.212609 0
M  V30 45 H 7.700542 5.737785 -8.057591 0
M  V30 46 H 7.434840 4.002371 -8.220786 0
M  V30 47 H 8.966105 4.605489 -7.615070 0
M  V30 48 H 11.443555 5.871576 -5.003885 0
M  V30 49 H 11.497412 6.324207 -2.060079 0
M  V30 50 H 13.159178 6.189553 -2.691670 0
M  V30 51 H 9.650895 3.921330 -13.227982 0
M  V30 52 H 11.434793 10.824176 -4.571782 0
M  V30 53 H 5.156786 7.649679 -14.254426 0
M  V30 54 H 10.707400 6.051190 -7.337499 0
M  V30 55 H 8.930115 7.769316 -10.070775 0
M  V30 END ATOM
M  V30 BEGIN BOND
M  V30 1 1 5 4
M  V30 2 1 7 3
M  V30 3 1 8 6
M  V30 4 1 11 2
M  V30 5 1 13 6
M  V30 6 1 14 7
M  V30 7 2 14 9
M  V30 8 1 16 2
M  V30 9 1 17 1
M  V30 10 1 17 12
M  V30 11 2 17 13
M  V30 12 1 18 1
M  V30 13 1 18 16
M  V30 14 1 19 11
M  V30 15 1 20 16
M  V30 16 2 21 4
M  V30 17 1 21 9
M  V30 18 1 22 3
M  V30 19 1 22 9
M  V30 20 1 23 1
M  V30 21 1 23 15
M  V30 22 2 24 5
M  V30 23 1 24 14
M  V30 24 1 25 8
M  V30 25 1 25 10
M  V30 26 1 25 12
M  V30 27 1 26 4
M  V30 28 2 26 19
M  V30 29 1 27 2
M  V30 30 1 28 2
M  V30 31 1 29 3
M  V30 32 1 30 3
M  V30 33 1 31 5
M  V30 34 1 32 6
M  V30 35 1 33 6
M  V30 36 1 34 7
M  V30 37 1 35 8
M  V30 38 1 36 8
M  V30 39 1 37 12
M  V30 40 1 38 12
M  V30 41 1 39 13
M  V30 42 1 40 15
M  V30 43 1 16 41 CFG=3
M  V30 44 1 42 18
M  V30 45 1 43 18
M  V30 46 1 44 19
M  V30 47 1 45 20
M  V30 48 1 46 20
M  V30 49 1 47 20
M  V30 50 1 48 21
M  V30 51 1 49 22
M  V30 52 1 50 22
M  V30 53 1 51 23
M  V30 54 1 52 24
M  V30 55 1 25 53 CFG=1
M  V30 56 1 54 26
M  V30 57 1 55 11
M  V30 END BOND
M  V30 END CTAB
M  END
>  <i_epik_Tot_Q>  (1) 
0

>  <i_epik_Tot_abs_Q>  (1) 
0

>  <i_i_glide_confnum>  (1) 
239

>  <i_i_glide_lignum>  (1) 
29

>  <i_i_glide_posenum>  (1) 
358

>  <i_i_glide_rotatable_bonds>  (1) 
9

>  <i_lp_mmshare_version>  (1) 
72125

>  <i_m_source_file_index>  (1) 
18

>  <i_f3d_flags>  (1) 
0

>  <num_sample>  (1) 
100

>  <b_lp_Chiralities_Consistent>  (1) 
1

>  <r_epik_Charging_Adjusted_Penalty>  (1) 
0

>  <r_epik_Ionization_Penalty>  (1) 
0.026997388265497368

>  <r_epik_Ionization_Penalty_Charging>  (1) 
0

>  <r_epik_Ionization_Penalty_Neutral>  (1) 
0.026997388265497368

>  <r_epik_State_Penalty>  (1) 
-0

>  <r_glide_ring_energy>  (1) 
0.25248745697504976

>  <r_i_docking_score>  (1) 
-8.1859815282800206

>  <r_i_glide_ecoul>  (1) 
-7.1237194370949739

>  <r_i_glide_eff_state_penalty>  (1) 
-0

>  <r_i_glide_einternal>  (1) 
6.3166977064990881

>  <r_i_glide_emodel>  (1) 
-50.783013993810329

>  <r_i_glide_emodel_strain>  (1) 
0.34606429557992158

>  <r_i_glide_energy>  (1) 
-34.786518543390962

>  <r_i_glide_erotb>  (1) 
0.88558064458011865

>  <r_i_glide_esite>  (1) 
-0.10000000000000001

>  <r_i_glide_evdw>  (1) 
-27.662799106295989

>  <r_i_glide_gscore>  (1) 
-8.1859815282800206

>  <r_i_glide_gscore_strain>  (1) 
0

>  <r_i_glide_hbond>  (1) 
-0.59678795069422097

>  <r_i_glide_ligand_efficiency>  (1) 
-0.31484544339538539

>  <r_i_glide_ligand_efficiency_ln>  (1) 
-1.9224509015203364

>  <r_i_glide_ligand_efficiency_sa>  (1) 
-0.93272838821480475

>  <r_i_glide_lipo>  (1) 
-3.1365882273712273

>  <r_i_glide_metal>  (1) 
-0

>  <r_i_glide_rewards>  (1) 
-2.7864881239156456

>  <r_lp_Energy>  (1) 
10.435043

>  <r_lp_tautomer_probability>  (1) 
1

>  <s_epik_Chemistry_Notes>  (1) 
This compound has a N-S or N-O group and may undergo hydrolysis at high or low pH.

>  <s_epik_cmdline>  (1) 
J2VwaWtfcHl0aG9uJywgJy1waHQnLCAnMS4wJywgJy1waCcsICc3LjQnLCAnLXRuJywgJzgnLCAnLW1hJywgJzUwMCcsICctaW1hZScsICc8aW5maWxlLm1hZT4nLCAnLW9tYWUnLCAnPG91dGZpbGUubWFlPic=

>  <s_epik_input>  (1) 
RltDQEhdKFtDSDJdMSlbQ0gyXVtDSDJdW0NIXT1DMU4oW05IXVtPSF0pW0NIMl1bQ0BIXShbQ0gzXSlbQ0gyXVtOSF0vW0NIXT1bQ0hdL2MoW2NIXTIpW2NIXVtjSF1jKGMyMylbTkhdW0NIMl1bQ0gyXTM=

>  <s_glide_docking_method>  (1) 
confgen

>  <s_i_glide_gridfile>  (1) 
gpcr_drd2_6luq_protein_autoprepared_prepared

>  <s_lp_Force_Field>  (1) 
S-OPLS

>  <s_lp_Variant>  (1) 
DiffSBDD_17_num_sample_100-2

>  <s_m_source_file>  (1) 
generated__ligand_DiffSBDD_2026-05-06_prepared.sdf

>  <GenAI_Model>  (1) 
DiffSBDD

>  <Protein>  (1) 
generic_title2

$$$$
DiffSBDD_19_num_sample_100
     RDKit          3D

  0  0  0  0  0  0  0  0  0  0999 V3000
M  V30 BEGIN CTAB
M  V30 COUNTS 54 57 0 0 1
M  V30 BEGIN ATOM
M  V30 1 C 9.294355 6.451587 -11.046782 0
M  V30 2 C 11.835000 9.114076 -9.213302 0
M  V30 3 C 6.284999 3.904803 -13.573736 0 CFG=1
M  V30 4 N 11.145654 8.030040 -7.041258 0
M  V30 5 C 7.611740 5.775708 -12.692626 0 CFG=1
M  V30 6 C 7.034909 7.564224 -14.394689 0
M  V30 7 C 7.048909 4.380991 -12.333503 0 CFG=1
M  V30 8 O 10.836736 6.265034 -5.459949 0
M  V30 9 C 6.495637 6.556210 -13.400099 0 CFG=1
M  V30 10 C 6.128372 4.378576 -11.091563 0
M  V30 11 S 5.490447 5.369309 -14.285379 0
M  V30 12 C 7.202879 3.227407 -14.602729 0
M  V30 13 C 11.729047 6.447840 -3.234888 0
M  V30 14 C 12.336470 7.222261 -2.238238 0
M  V30 15 C 10.773006 8.370055 -8.406466 0 CFG=2
M  V30 16 C 10.327789 6.034885 -7.812689 0
M  V30 17 C 11.449732 8.944470 -6.085898 0
M  V30 18 N 8.039339 6.469714 -11.491756 0
M  V30 19 O 10.234814 5.967248 -11.667010 0
M  V30 20 C 11.434829 7.014843 -4.484545 0
M  V30 21 C 12.633819 8.572587 -2.479928 0
M  V30 22 C 12.338240 9.143758 -3.730762 0
M  V30 23 C 10.567671 6.973234 -9.012358 0 CFG=1
M  V30 24 N 9.388012 6.991232 -9.831654 0
M  V30 25 C 11.235816 6.619622 -6.744895 0 CFG=1
M  V30 26 C 11.748593 8.360731 -4.737258 0
M  V30 27 O 11.489451 10.159191 -6.280498 0
M  V30 28 H 11.636080 9.036772 -10.282511 0
M  V30 29 H 11.834761 10.170013 -8.971405 0
M  V30 30 H 12.835515 8.718031 -9.036306 0
M  V30 31 H 5.509223 3.190145 -13.296244 0
M  V30 32 H 8.444666 5.642061 -13.386373 0
M  V30 33 H 7.615516 8.331402 -13.885667 0
M  V30 34 H 7.700908 7.062904 -15.091675 0
M  V30 35 H 6.239708 8.047193 -14.963539 0
M  V30 36 H 7.876435 3.702105 -12.120500 0
M  V30 37 H 5.847930 7.049108 -12.673103 0
M  V30 38 H 5.286132 5.061445 -11.207707 0
M  V30 39 H 5.722755 3.384261 -10.906059 0
M  V30 40 H 6.662993 4.666619 -10.186087 0
M  V30 41 H 7.687579 2.349102 -14.174949 0
M  V30 42 H 6.635035 2.896548 -15.472288 0
M  V30 43 H 7.984681 3.900773 -14.954024 0
M  V30 44 H 11.493741 5.415637 -3.042125 0
M  V30 45 H 12.576247 6.779416 -1.287437 0
M  V30 46 H 9.838404 8.935557 -8.383621 0
M  V30 47 H 10.576150 4.993354 -8.015727 0
M  V30 48 H 9.295352 6.089822 -7.459924 0
M  V30 49 H 7.323652 6.902835 -10.911040 0
M  V30 50 H 13.094293 9.169319 -1.708673 0
M  V30 51 H 12.577184 10.169266 -3.921262 0
M  V30 52 H 11.465588 6.657240 -9.535846 0
M  V30 53 H 8.532838 7.369327 -9.415624 0
M  V30 54 H 12.265669 6.310470 -6.901310 0
M  V30 END ATOM
M  V30 BEGIN BOND
M  V30 1 1 7 3
M  V30 2 1 7 5
M  V30 3 1 9 5
M  V30 4 1 9 6
M  V30 5 1 10 7
M  V30 6 1 11 3
M  V30 7 1 11 9
M  V30 8 1 12 3
M  V30 9 1 14 13
M  V30 10 1 15 2
M  V30 11 1 15 4
M  V30 12 1 17 4
M  V30 13 1 18 1
M  V30 14 1 18 5
M  V30 15 2 19 1
M  V30 16 1 20 8
M  V30 17 2 20 13
M  V30 18 2 21 14
M  V30 19 1 22 21
M  V30 20 1 23 15
M  V30 21 1 23 16
M  V30 22 1 24 1
M  V30 23 1 24 23
M  V30 24 1 25 4
M  V30 25 1 25 8
M  V30 26 1 25 16
M  V30 27 1 26 17
M  V30 28 1 26 20
M  V30 29 2 26 22
M  V30 30 2 27 17
M  V30 31 1 28 2
M  V30 32 1 29 2
M  V30 33 1 30 2
M  V30 34 1 3 31 CFG=1
M  V30 35 1 5 32 CFG=3
M  V30 36 1 33 6
M  V30 37 1 34 6
M  V30 38 1 35 6
M  V30 39 1 7 36 CFG=1
M  V30 40 1 9 37 CFG=1
M  V30 41 1 38 10
M  V30 42 1 39 10
M  V30 43 1 40 10
M  V30 44 1 41 12
M  V30 45 1 42 12
M  V30 46 1 43 12
M  V30 47 1 44 13
M  V30 48 1 45 14
M  V30 49 1 15 46 CFG=1
M  V30 50 1 47 16
M  V30 51 1 48 16
M  V30 52 1 49 18
M  V30 53 1 50 21
M  V30 54 1 51 22
M  V30 55 1 23 52 CFG=3
M  V30 56 1 53 24
M  V30 57 1 25 54 CFG=3
M  V30 END BOND
M  V30 END CTAB
M  END
>  <i_epik_Tot_Q>  (1) 
0

>  <i_epik_Tot_abs_Q>  (1) 
0

>  <i_i_glide_confnum>  (1) 
1

>  <i_i_glide_lignum>  (1) 
31

>  <i_i_glide_posenum>  (1) 
193

>  <i_i_glide_rotatable_bonds>  (1) 
4

>  <i_lp_mmshare_version>  (1) 
72125

>  <i_m_source_file_index>  (1) 
20

>  <i_f3d_flags>  (1) 
0

>  <num_sample>  (1) 
100

>  <b_lp_Chiralities_Consistent>  (1) 
1

>  <r_epik_Charging_Adjusted_Penalty>  (1) 
0

>  <r_epik_Ionization_Penalty>  (1) 
1.7464855434589993e-05

>  <r_epik_Ionization_Penalty_Charging>  (1) 
0

>  <r_epik_Ionization_Penalty_Neutral>  (1) 
1.7464855434589993e-05

>  <r_epik_State_Penalty>  (1) 
-0

>  <r_glide_ring_energy>  (1) 
1.726873637521267

>  <r_i_docking_score>  (1) 
-8.0657313475360226

>  <r_i_glide_ecoul>  (1) 
-7.1918285491767646

>  <r_i_glide_eff_state_penalty>  (1) 
-0

>  <r_i_glide_einternal>  (1) 
14.016983875764856

>  <r_i_glide_emodel>  (1) 
-50.353221246171621

>  <r_i_glide_emodel_strain>  (1) 
0.52759655974227115

>  <r_i_glide_energy>  (1) 
-39.696445263631787

>  <r_i_glide_erotb>  (1) 
0.51395476033457277

>  <r_i_glide_esite>  (1) 
-0.26140207766789048

>  <r_i_glide_evdw>  (1) 
-32.504616714455025

>  <r_i_glide_gscore>  (1) 
-8.0657313475360226

>  <r_i_glide_gscore_strain>  (1) 
0

>  <r_i_glide_hbond>  (1) 
-0.3009115634911731

>  <r_i_glide_ligand_efficiency>  (1) 
-0.29873079064948233

>  <r_i_glide_ligand_efficiency_ln>  (1) 
-1.8775692837326412

>  <r_i_glide_ligand_efficiency_sa>  (1) 
-0.89619237194844714

>  <r_i_glide_lipo>  (1) 
-2.6827645847675385

>  <r_i_glide_metal>  (1) 
-0

>  <r_i_glide_rewards>  (1) 
-2.6306027638447258

>  <r_lp_Energy>  (1) 
24.337422

>  <r_lp_tautomer_probability>  (1) 
1

>  <s_epik_Chemistry_Notes>  (1) 
This compound contains an acetal/aminal-like group ( X-CH(R)-Y where X, Y are N, S, or O) that may be acid/base labile, releasing an aldehyde.

>  <s_epik_cmdline>  (1) 
J2VwaWtfcHl0aG9uJywgJy1waHQnLCAnMS4wJywgJy1waCcsICc3LjQnLCAnLXRuJywgJzgnLCAnLW1hJywgJzUwMCcsICctaW1hZScsICc8aW5maWxlLm1hZT4nLCAnLW9tYWUnLCAnPG91dGZpbGUubWFlPic=

>  <s_epik_input>  (1) 
W0NIM11bQ0BIXTFbQ0BIXShbQ0gzXSlbQ0BASF0oW0NASF0oUzEpW0NIM10pW05IXUMoPU8pW05IXVtDQEBIXShbQ0BASF0yW0NIM10pW0NIMl1bQ0BASF0oTjIzKU9jNGMoQzM9TylbY0hdW2NIXVtjSF1bY0hdNA==

>  <s_glide_docking_method>  (1) 
confgen

>  <s_i_glide_gridfile>  (1) 
gpcr_drd2_6luq_protein_autoprepared_prepared

>  <s_lp_Force_Field>  (1) 
S-OPLS

>  <s_lp_Variant>  (1) 
DiffSBDD_19_num_sample_100-1

>  <s_m_source_file>  (1) 
generated__ligand_DiffSBDD_2026-05-06_prepared.sdf

>  <GenAI_Model>  (1) 
DiffSBDD

>  <Protein>  (1) 
generic_title2

$$$$
DiffSBDD_19_num_sample_100
     RDKit          3D

  0  0  0  0  0  0  0  0  0  0999 V3000
M  V30 BEGIN CTAB
M  V30 COUNTS 54 57 0 0 1
M  V30 BEGIN ATOM
M  V30 1 C 9.541337 6.716703 -10.923251 0
M  V30 2 C 11.834831 9.111555 -8.976820 0
M  V30 3 C 6.370130 4.712486 -12.382443 0 CFG=1
M  V30 4 N 11.147562 8.028375 -6.806898 0
M  V30 5 C 8.160834 6.329413 -12.888683 0 CFG=1
M  V30 6 C 6.634830 7.300775 -14.736456 0
M  V30 7 C 7.757778 4.849146 -13.040040 0 CFG=1
M  V30 8 O 10.914633 6.227068 -5.243832 0
M  V30 9 C 6.936656 7.163617 -13.245719 0 CFG=1
M  V30 10 C 8.780789 3.835448 -12.496035 0
M  V30 11 S 5.593026 6.345675 -12.386684 0
M  V30 12 C 5.473155 3.719768 -13.100332 0
M  V30 13 C 11.824193 6.413412 -3.033728 0
M  V30 14 C 12.404405 7.198079 -2.031491 0
M  V30 15 C 10.761876 8.378959 -8.161753 0 CFG=2
M  V30 16 C 10.312867 6.043146 -7.555231 0
M  V30 17 C 11.434875 8.936056 -5.844812 0
M  V30 18 N 8.359710 6.635893 -11.491888 0
M  V30 19 O 10.607838 6.583375 -11.523297 0
M  V30 20 C 11.499642 6.984113 -4.272082 0
M  V30 21 C 12.645490 8.562437 -2.254789 0
M  V30 22 C 12.328622 9.135132 -3.496742 0
M  V30 23 C 10.560576 6.976651 -8.737684 0 CFG=1
M  V30 24 N 9.434839 6.941227 -9.621041 0
M  V30 25 C 11.263641 6.612087 -6.528404 0 CFG=1
M  V30 26 C 11.766387 8.343980 -4.510959 0
M  V30 27 O 11.435444 10.154866 -6.022922 0
M  V30 28 H 11.631639 9.036487 -10.045399 0
M  V30 29 H 11.834835 10.169250 -8.737121 0
M  V30 30 H 12.833611 8.712115 -8.799747 0
M  V30 31 H 6.473438 4.420848 -11.336193 0
M  V30 32 H 9.031642 6.569302 -13.491660 0
M  V30 33 H 7.385233 7.951835 -15.172615 0
M  V30 34 H 6.644019 6.346582 -15.261800 0
M  V30 35 H 5.663675 7.769133 -14.900686 0
M  V30 36 H 7.668128 4.656854 -14.109575 0
M  V30 37 H 7.034969 8.168939 -12.831450 0
M  V30 38 H 8.877997 3.893382 -11.412234 0
M  V30 39 H 8.488646 2.814066 -12.742226 0
M  V30 40 H 9.768224 4.010045 -12.923957 0
M  V30 41 H 5.838314 2.698118 -12.994563 0
M  V30 42 H 4.455290 3.769337 -12.717328 0
M  V30 43 H 5.434845 3.955461 -14.162650 0
M  V30 44 H 11.628405 5.369889 -2.852141 0
M  V30 45 H 12.663796 6.752132 -1.091664 0
M  V30 46 H 9.822879 8.937351 -8.139716 0
M  V30 47 H 10.539087 5.003029 -7.785647 0
M  V30 48 H 9.289237 6.120202 -7.181275 0
M  V30 49 H 7.531820 6.781227 -10.918685 0
M  V30 50 H 13.082427 9.166717 -1.476011 0
M  V30 51 H 12.526457 10.169301 -3.673637 0
M  V30 52 H 11.478615 6.645513 -9.220797 0
M  V30 53 H 8.505582 7.068655 -9.218911 0
M  V30 54 H 12.285070 6.303937 -6.732719 0
M  V30 END ATOM
M  V30 BEGIN BOND
M  V30 1 1 7 3
M  V30 2 1 7 5
M  V30 3 1 9 5
M  V30 4 1 9 6
M  V30 5 1 10 7
M  V30 6 1 11 3
M  V30 7 1 11 9
M  V30 8 1 12 3
M  V30 9 1 14 13
M  V30 10 1 15 2
M  V30 11 1 15 4
M  V30 12 1 17 4
M  V30 13 1 18 1
M  V30 14 1 18 5
M  V30 15 2 19 1
M  V30 16 1 20 8
M  V30 17 2 20 13
M  V30 18 2 21 14
M  V30 19 1 22 21
M  V30 20 1 23 15
M  V30 21 1 23 16
M  V30 22 1 24 1
M  V30 23 1 24 23
M  V30 24 1 25 4
M  V30 25 1 25 8
M  V30 26 1 25 16
M  V30 27 1 26 17
M  V30 28 1 26 20
M  V30 29 2 26 22
M  V30 30 2 27 17
M  V30 31 1 28 2
M  V30 32 1 29 2
M  V30 33 1 30 2
M  V30 34 1 3 31 CFG=1
M  V30 35 1 5 32 CFG=3
M  V30 36 1 33 6
M  V30 37 1 34 6
M  V30 38 1 35 6
M  V30 39 1 7 36 CFG=3
M  V30 40 1 9 37 CFG=1
M  V30 41 1 38 10
M  V30 42 1 39 10
M  V30 43 1 40 10
M  V30 44 1 41 12
M  V30 45 1 42 12
M  V30 46 1 43 12
M  V30 47 1 44 13
M  V30 48 1 45 14
M  V30 49 1 15 46 CFG=1
M  V30 50 1 47 16
M  V30 51 1 48 16
M  V30 52 1 49 18
M  V30 53 1 50 21
M  V30 54 1 51 22
M  V30 55 1 23 52 CFG=3
M  V30 56 1 53 24
M  V30 57 1 25 54 CFG=3
M  V30 END BOND
M  V30 END CTAB
M  END
>  <i_epik_Tot_Q>  (1) 
0

>  <i_epik_Tot_abs_Q>  (1) 
0

>  <i_i_glide_confnum>  (1) 
26

>  <i_i_glide_lignum>  (1) 
31

>  <i_i_glide_posenum>  (1) 
25

>  <i_i_glide_rotatable_bonds>  (1) 
4

>  <i_lp_mmshare_version>  (1) 
72125

>  <i_m_source_file_index>  (1) 
20

>  <i_f3d_flags>  (1) 
0

>  <num_sample>  (1) 
100

>  <b_lp_Chiralities_Consistent>  (1) 
1

>  <r_epik_Charging_Adjusted_Penalty>  (1) 
0

>  <r_epik_Ionization_Penalty>  (1) 
1.7464855434589993e-05

>  <r_epik_Ionization_Penalty_Charging>  (1) 
0

>  <r_epik_Ionization_Penalty_Neutral>  (1) 
1.7464855434589993e-05

>  <r_epik_State_Penalty>  (1) 
-0

>  <r_glide_ring_energy>  (1) 
0

>  <r_i_docking_score>  (1) 
-8.0080812977102589

>  <r_i_glide_ecoul>  (1) 
-5.9824826733175627

>  <r_i_glide_eff_state_penalty>  (1) 
-0

>  <r_i_glide_einternal>  (1) 
6.7676023854907452

>  <r_i_glide_emodel>  (1) 
-53.666650979815664

>  <r_i_glide_emodel_strain>  (1) 
0

>  <r_i_glide_energy>  (1) 
-38.987621721372093

>  <r_i_glide_erotb>  (1) 
0.51395476033457277

>  <r_i_glide_esite>  (1) 
-0.26499052789686856

>  <r_i_glide_evdw>  (1) 
-33.005139048054531

>  <r_i_glide_gscore>  (1) 
-8.0080812977102589

>  <r_i_glide_gscore_strain>  (1) 
0

>  <r_i_glide_hbond>  (1) 
-0.26834662258040093

>  <r_i_glide_ligand_efficiency>  (1) 
-0.29659560361889847

>  <r_i_glide_ligand_efficiency_ln>  (1) 
-1.8641493025685554

>  <r_i_glide_ligand_efficiency_sa>  (1) 
-0.88978681085669564

>  <r_i_glide_lipo>  (1) 
-2.7524454261784905

>  <r_i_glide_metal>  (1) 
-0

>  <r_i_glide_rewards>  (1) 
-2.6886241279887106

>  <r_lp_Energy>  (1) 
24.337422

>  <r_lp_tautomer_probability>  (1) 
1

>  <s_epik_Chemistry_Notes>  (1) 
This compound contains an acetal/aminal-like group ( X-CH(R)-Y where X, Y are N, S, or O) that may be acid/base labile, releasing an aldehyde.

>  <s_epik_cmdline>  (1) 
J2VwaWtfcHl0aG9uJywgJy1waHQnLCAnMS4wJywgJy1waCcsICc3LjQnLCAnLXRuJywgJzgnLCAnLW1hJywgJzUwMCcsICctaW1hZScsICc8aW5maWxlLm1hZT4nLCAnLW9tYWUnLCAnPG91dGZpbGUubWFlPic=

>  <s_epik_input>  (1) 
W0NIM11bQ0BIXTFbQ0BIXShbQ0gzXSlbQ0BASF0oW0NASF0oUzEpW0NIM10pW05IXUMoPU8pW05IXVtDQEBIXShbQ0BASF0yW0NIM10pW0NIMl1bQ0BASF0oTjIzKU9jNGMoQzM9TylbY0hdW2NIXVtjSF1bY0hdNA==

>  <s_glide_docking_method>  (1) 
confgen

>  <s_i_glide_gridfile>  (1) 
gpcr_drd2_6luq_protein_autoprepared_prepared

>  <s_lp_Force_Field>  (1) 
S-OPLS

>  <s_lp_Variant>  (1) 
DiffSBDD_19_num_sample_100-1

>  <s_m_source_file>  (1) 
generated__ligand_DiffSBDD_2026-05-06_prepared.sdf

>  <GenAI_Model>  (1) 
DiffSBDD

>  <Protein>  (1) 
generic_title2

$$$$
DiffSBDD_90_num_sample_100
     RDKit          3D

  0  0  0  0  0  0  0  0  0  0999 V3000
M  V30 BEGIN CTAB
M  V30 COUNTS 61 65 0 0 1
M  V30 BEGIN ATOM
M  V30 1 C 6.210517 4.661248 -18.686065 0
M  V30 2 C 7.272880 4.304579 -15.650472 0
M  V30 3 C 11.376111 6.621529 -4.240328 0
M  V30 4 S 5.435250 5.499278 -19.994607 0
M  V30 5 C 7.455799 5.709799 -13.636998 0
M  V30 6 C 6.409969 6.569309 -15.653579 0
M  V30 7 C 6.806328 6.775615 -14.321775 0
M  V30 8 C 11.295923 6.681127 -5.777738 0
M  V30 9 C 12.017853 9.098216 -3.825394 0
M  V30 10 C 12.237599 7.385060 -1.984958 0
M  V30 11 N 10.499630 7.785134 -6.377425 0 CFG=1 CHG=1
M  V30 12 C 11.026056 9.175592 -6.216504 0
M  V30 13 C 9.014414 6.081234 -9.542717 0
M  V30 14 C 8.698396 3.563346 -12.295383 0
M  V30 15 C 6.666940 5.384638 -16.286192 0
M  V30 16 C 10.172927 7.544958 -7.817453 0
M  V30 17 C 5.170556 6.905435 -18.980709 0
M  V30 18 C 5.657763 7.639661 -16.549568 0
M  V30 19 C 7.898692 5.876017 -12.307323 0
M  V30 20 C 12.222308 9.430520 -5.304428 0
M  V30 21 N 5.674203 6.670976 -17.752019 0 CHG=1
M  V30 22 C 4.499123 8.169293 -19.368469 0
M  V30 23 C 12.287035 7.625081 -3.501839 0 CFG=1
M  V30 24 C 8.256646 3.396078 -13.617784 0
M  V30 25 C 7.662358 4.460606 -14.301478 0
M  V30 26 C 9.035982 4.940358 -10.248453 0
M  V30 27 C 9.497933 6.194925 -8.115752 0
M  V30 28 C 8.538615 4.799246 -11.632773 0
M  V30 29 C 6.234866 5.452662 -17.571379 0
M  V30 30 H 6.584470 3.655763 -18.815094 0
M  V30 31 H 7.440444 3.374400 -16.174055 0
M  V30 32 H 11.789381 5.644123 -4.000883 0
M  V30 33 H 10.368802 6.569305 -3.833966 0
M  V30 34 H 6.624849 7.720183 -13.830514 0
M  V30 35 H 10.761800 5.769313 -5.991768 0
M  V30 36 H 12.234838 6.562258 -6.293115 0
M  V30 37 H 12.722334 9.700255 -3.249216 0
M  V30 38 H 11.034934 9.414367 -3.487565 0
M  V30 39 H 11.245207 7.583089 -1.577681 0
M  V30 40 H 12.498085 6.353315 -1.743714 0
M  V30 41 H 12.944903 8.030119 -1.461771 0
M  V30 42 H 11.305756 9.581630 -7.188660 0
M  V30 43 H 10.234732 9.803384 -5.846530 0
M  V30 44 H 8.634840 6.975797 -9.987056 0
M  V30 45 H 9.175534 2.739279 -11.786483 0
M  V30 46 H 11.082985 7.624507 -8.415902 0
M  V30 47 H 9.505750 8.343611 -8.150462 0
M  V30 48 H 4.634537 7.832415 -16.224514 0
M  V30 49 H 6.234844 8.548041 -16.691732 0
M  V30 50 H 7.751345 6.821950 -11.810493 0
M  V30 51 H 13.108901 8.969318 -5.710300 0
M  V30 52 H 12.409281 10.500937 -5.375943 0
M  V30 53 H 3.552863 8.227919 -18.830026 0
M  V30 54 H 5.162318 8.992351 -19.115853 0
M  V30 55 H 13.312474 7.423893 -3.803258 0
M  V30 56 H 8.397300 2.447054 -14.113528 0
M  V30 57 H 9.437278 4.051878 -9.790817 0
M  V30 58 H 8.634304 6.064758 -7.461590 0
M  V30 59 H 10.173722 5.357530 -7.944922 0
M  V30 60 H 4.314442 8.154188 -20.442613 0
M  V30 61 H 9.611907 7.762052 -5.893841 0
M  V30 END ATOM
M  V30 BEGIN BOND
M  V30 1 1 4 1
M  V30 2 2 7 5
M  V30 3 1 7 6
M  V30 4 1 8 3
M  V30 5 1 11 8
M  V30 6 1 12 11
M  V30 7 1 15 2
M  V30 8 2 15 6
M  V30 9 1 16 11
M  V30 10 1 17 4
M  V30 11 1 18 6
M  V30 12 1 19 5
M  V30 13 1 20 9
M  V30 14 1 20 12
M  V30 15 2 21 17
M  V30 16 1 21 18
M  V30 17 1 22 17
M  V30 18 1 23 3
M  V30 19 1 23 9
M  V30 20 1 23 10
M  V30 21 2 24 14
M  V30 22 2 25 2
M  V30 23 1 25 5
M  V30 24 1 25 24
M  V30 25 2 26 13
M  V30 26 1 27 13
M  V30 27 1 27 16
M  V30 28 1 28 14
M  V30 29 2 28 19
M  V30 30 1 28 26
M  V30 31 2 29 1
M  V30 32 1 29 15
M  V30 33 1 29 21
M  V30 34 1 30 1
M  V30 35 1 31 2
M  V30 36 1 32 3
M  V30 37 1 33 3
M  V30 38 1 34 7
M  V30 39 1 35 8
M  V30 40 1 36 8
M  V30 41 1 37 9
M  V30 42 1 38 9
M  V30 43 1 39 10
M  V30 44 1 40 10
M  V30 45 1 41 10
M  V30 46 1 42 12
M  V30 47 1 43 12
M  V30 48 1 44 13
M  V30 49 1 45 14
M  V30 50 1 46 16
M  V30 51 1 47 16
M  V30 52 1 48 18
M  V30 53 1 49 18
M  V30 54 1 50 19
M  V30 55 1 51 20
M  V30 56 1 52 20
M  V30 57 1 53 22
M  V30 58 1 54 22
M  V30 59 1 23 55 CFG=3
M  V30 60 1 56 24
M  V30 61 1 57 26
M  V30 62 1 58 27
M  V30 63 1 59 27
M  V30 64 1 60 22
M  V30 65 1 11 61 CFG=1
M  V30 END BOND
M  V30 END CTAB
M  END
>  <i_epik_Tot_Q>  (1) 
2

>  <i_epik_Tot_abs_Q>  (1) 
2

>  <i_i_glide_confnum>  (1) 
145

>  <i_i_glide_lignum>  (1) 
182

>  <i_i_glide_posenum>  (1) 
263

>  <i_i_glide_rotatable_bonds>  (1) 
4

>  <i_lp_mmshare_version>  (1) 
72125

>  <i_m_source_file_index>  (1) 
91

>  <i_f3d_flags>  (1) 
0

>  <num_sample>  (1) 
100

>  <b_lp_Chiralities_Consistent>  (1) 
1

>  <r_epik_Charging_Adjusted_Penalty>  (1) 
0.0021252633397680827

>  <r_epik_Ionization_Penalty>  (1) 
0.002125263340211697

>  <r_epik_Ionization_Penalty_Charging>  (1) 
0.0021252633397680827

>  <r_epik_Ionization_Penalty_Neutral>  (1) 
4.4361447992621368e-13

>  <r_epik_State_Penalty>  (1) 
-0

>  <r_glide_ring_energy>  (1) 
1.2599846203736671

>  <r_i_docking_score>  (1) 
-7.9759902691135025

>  <r_i_glide_ecoul>  (1) 
-2.3384872797360687

>  <r_i_glide_eff_state_penalty>  (1) 
-0

>  <r_i_glide_einternal>  (1) 
3.3531900566524637

>  <r_i_glide_emodel>  (1) 
-51.940380751352791

>  <r_i_glide_emodel_strain>  (1) 
1.3770459726832058

>  <r_i_glide_energy>  (1) 
-35.646235089411121

>  <r_i_glide_erotb>  (1) 
0.47996519481946287

>  <r_i_glide_esite>  (1) 
0

>  <r_i_glide_evdw>  (1) 
-33.30774780967505

>  <r_i_glide_gscore>  (1) 
-7.9759902691135025

>  <r_i_glide_gscore_strain>  (1) 
0

>  <r_i_glide_hbond>  (1) 
0

>  <r_i_glide_ligand_efficiency>  (1) 
-0.27503414721081043

>  <r_i_glide_ligand_efficiency_ln>  (1) 
-1.8262995179646908

>  <r_i_glide_ligand_efficiency_sa>  (1) 
-0.84499203811393131

>  <r_i_glide_lipo>  (1) 
-4.5549117609925656

>  <r_i_glide_metal>  (1) 
-0

>  <r_i_glide_rewards>  (1) 
-1.8848832204962365

>  <r_lp_Energy>  (1) 
47.281444999999998

>  <r_lp_tautomer_probability>  (1) 
1

>  <s_epik_cmdline>  (1) 
J2VwaWtfcHl0aG9uJywgJy1waHQnLCAnMS4wJywgJy1waCcsICc3LjQnLCAnLXRuJywgJzgnLCAnLW1hJywgJzUwMCcsICctaW1hZScsICc8aW5maWxlLm1hZT4nLCAnLW9tYWUnLCAnPG91dGZpbGUubWFlPic=

>  <s_epik_input>  (1) 
W0NIMl09QzFTW0NIXT1DMk4xW0NIMl1jKFtjSF0zKWMyW2NIXWMoYzM0KVtjSF1bY0hdYyhbY0hdNClcW0NIXT1bQ0hdXFtDSDJdW0NIMl1ONVtDSDJdW0NIMl1bQ0BIXShbQ0gzXSlbQ0gyXVtDSDJdW0NIMl01

>  <s_glide_docking_method>  (1) 
confgen

>  <s_i_glide_gridfile>  (1) 
gpcr_drd2_6luq_protein_autoprepared_prepared

>  <s_lp_Force_Field>  (1) 
S-OPLS

>  <s_lp_Variant>  (1) 
DiffSBDD_90_num_sample_100-2

>  <s_m_source_file>  (1) 
generated__ligand_DiffSBDD_2026-05-06_prepared.sdf

>  <GenAI_Model>  (1) 
DiffSBDD

>  <Protein>  (1) 
generic_title2

$$$$
DiffSBDD_83_num_sample_100
     RDKit          3D

  0  0  0  0  0  0  0  0  0  0999 V3000
M  V30 BEGIN CTAB
M  V30 COUNTS 49 53 0 0 1
M  V30 BEGIN ATOM
M  V30 1 C 6.883660 4.988871 -12.648102 0
M  V30 2 C 11.031582 10.189326 -4.957005 0
M  V30 3 C 11.092292 7.746192 -5.104369 0 CFG=1
M  V30 4 C 10.004445 6.228244 -7.578990 0
M  V30 5 C 11.337079 8.106704 -6.562281 0 CFG=2
M  V30 6 N 8.234854 5.769303 -9.581676 0 CHG=1
M  V30 7 C 11.994223 8.165813 -3.960796 0
M  V30 8 C 7.366440 2.755843 -13.513969 0
M  V30 9 C 10.481766 8.989729 -5.701380 0 CFG=2
M  V30 10 C 10.743668 7.325636 -7.688297 0
M  V30 11 C 6.987795 1.569216 -14.394378 0
M  V30 12 C 8.458048 6.147635 -11.024730 0 CFG=1
M  V30 13 C 8.922224 3.832577 -11.969509 0
M  V30 14 C 10.843279 7.624916 -9.022639 0
M  V30 15 C 6.526618 3.887263 -13.451761 0
M  V30 16 C 11.705244 9.640916 -3.689518 0
M  V30 17 C 9.908519 6.729673 -11.179607 0
M  V30 18 C 8.563173 2.730699 -12.768598 0
M  V30 19 C 10.193265 6.709605 -9.725367 0
M  V30 20 C 5.815195 0.711113 -13.880403 0
M  V30 21 O 6.234963 -0.230658 -12.914783 0
M  V30 22 C 9.539527 5.569793 -8.935708 0 CFG=1
M  V30 23 C 8.084405 4.964006 -11.906584 0
M  V30 24 H 6.235012 5.852044 -12.598824 0
M  V30 25 H 11.751978 10.704495 -5.592764 0
M  V30 26 H 10.234902 10.892870 -4.713324 0
M  V30 27 H 10.403782 6.936914 -4.870876 0
M  V30 28 H 9.752867 5.769147 -6.636270 0
M  V30 29 H 12.308863 8.515801 -6.826550 0
M  V30 30 H 7.768384 6.609476 -9.203772 0
M  V30 31 H 13.034846 8.069327 -4.245862 0
M  V30 32 H 11.834583 7.544093 -3.078680 0
M  V30 33 H 9.410512 8.969053 -5.891723 0
M  V30 34 H 7.860199 0.939378 -14.575399 0
M  V30 35 H 6.714026 1.975139 -15.368929 0
M  V30 36 H 7.761606 6.953034 -11.256488 0
M  V30 37 H 9.834765 3.805470 -11.400264 0
M  V30 38 H 11.315618 8.506626 -9.430484 0
M  V30 39 H 5.609236 3.910558 -14.019669 0
M  V30 40 H 12.618405 10.169274 -3.423510 0
M  V30 41 H 11.034917 9.734492 -2.837784 0
M  V30 42 H 10.583148 6.073879 -11.728072 0
M  V30 43 H 9.935714 7.732785 -11.606756 0
M  V30 44 H 9.207241 1.864245 -12.809882 0
M  V30 45 H 5.406237 0.139727 -14.714492 0
M  V30 46 H 5.002051 1.322936 -13.491656 0
M  V30 47 H 5.756066 -1.050843 -13.062677 0
M  V30 48 H 9.992673 4.601189 -9.142910 0
M  V30 49 H 7.618215 4.976557 -9.491211 0
M  V30 END ATOM
M  V30 BEGIN BOND
M  V30 1 1 5 3
M  V30 2 1 7 3
M  V30 3 1 9 2
M  V30 4 1 9 3
M  V30 5 1 9 5
M  V30 6 2 10 4
M  V30 7 1 10 5
M  V30 8 1 11 8
M  V30 9 1 12 6
M  V30 10 1 14 10
M  V30 11 2 15 1
M  V30 12 1 15 8
M  V30 13 1 16 2
M  V30 14 1 16 7
M  V30 15 1 17 12
M  V30 16 2 18 8
M  V30 17 1 18 13
M  V30 18 2 19 14
M  V30 19 1 19 17
M  V30 20 1 20 11
M  V30 21 1 21 20
M  V30 22 1 22 4
M  V30 23 1 22 6
M  V30 24 1 22 19
M  V30 25 1 23 1
M  V30 26 1 23 12
M  V30 27 2 23 13
M  V30 28 1 24 1
M  V30 29 1 25 2
M  V30 30 1 26 2
M  V30 31 1 3 27 CFG=3
M  V30 32 1 28 4
M  V30 33 1 5 29 CFG=3
M  V30 34 1 30 6
M  V30 35 1 31 7
M  V30 36 1 32 7
M  V30 37 1 9 33 CFG=3
M  V30 38 1 34 11
M  V30 39 1 35 11
M  V30 40 1 12 36 CFG=3
M  V30 41 1 37 13
M  V30 42 1 38 14
M  V30 43 1 39 15
M  V30 44 1 40 16
M  V30 45 1 41 16
M  V30 46 1 42 17
M  V30 47 1 43 17
M  V30 48 1 44 18
M  V30 49 1 45 20
M  V30 50 1 46 20
M  V30 51 1 47 21
M  V30 52 1 22 48 CFG=3
M  V30 53 1 49 6
M  V30 END BOND
M  V30 END CTAB
M  END
>  <i_epik_Tot_Q>  (1) 
1

>  <i_epik_Tot_abs_Q>  (1) 
1

>  <i_i_glide_confnum>  (1) 
139

>  <i_i_glide_lignum>  (1) 
170

>  <i_i_glide_posenum>  (1) 
76

>  <i_i_glide_rotatable_bonds>  (1) 
5

>  <i_lp_mmshare_version>  (1) 
72125

>  <i_m_source_file_index>  (1) 
84

>  <i_f3d_flags>  (1) 
0

>  <num_sample>  (1) 
100

>  <b_lp_Chiralities_Consistent>  (1) 
1

>  <r_epik_Charging_Adjusted_Penalty>  (1) 
0.3591125196210796

>  <r_epik_Ionization_Penalty>  (1) 
0.17955633890062345

>  <r_epik_Ionization_Penalty_Charging>  (1) 
0.1795562598105398

>  <r_epik_Ionization_Penalty_Neutral>  (1) 
7.9090083639956194e-08

>  <r_epik_State_Penalty>  (1) 
0.1795562598105398

>  <r_glide_ring_energy>  (1) 
1.4396960314071907

>  <r_i_docking_score>  (1) 
-7.8544189020240749

>  <r_i_glide_ecoul>  (1) 
-9.7884711466417738

>  <r_i_glide_eff_state_penalty>  (1) 
0.1795562598105398

>  <r_i_glide_einternal>  (1) 
1.9070666776461791

>  <r_i_glide_emodel>  (1) 
-57.928498379659302

>  <r_i_glide_emodel_strain>  (1) 
0.38392757152479362

>  <r_i_glide_energy>  (1) 
-38.429228251358509

>  <r_i_glide_erotb>  (1) 
0.54451104441396425

>  <r_i_glide_esite>  (1) 
-0.10000000000000001

>  <r_i_glide_evdw>  (1) 
-28.640757104716737

>  <r_i_glide_gscore>  (1) 
-8.0339751618346149

>  <r_i_glide_gscore_strain>  (1) 
0

>  <r_i_glide_hbond>  (1) 
-0.34301751924565327

>  <r_i_glide_ligand_efficiency>  (1) 
-0.34149647400104671

>  <r_i_glide_ligand_efficiency_ln>  (1) 
-1.8992697104424239

>  <r_i_glide_ligand_efficiency_sa>  (1) 
-0.97117054614731546

>  <r_i_glide_lipo>  (1) 
-2.4991201824980931

>  <r_i_glide_metal>  (1) 
-0

>  <r_i_glide_rewards>  (1) 
-2.7360399772727284

>  <r_lp_Energy>  (1) 
32.732737999999998

>  <s_epik_cmdline>  (1) 
J2VwaWtfcHl0aG9uJywgJy1waHQnLCAnMS4wJywgJy1waCcsICc3LjQnLCAnLXRuJywgJzgnLCAnLW1hJywgJzUwMCcsICctaW1hZScsICc8aW5maWxlLm1hZT4nLCAnLW9tYWUnLCAnPG91dGZpbGUubWFlPic=

>  <s_epik_input>  (1) 
W09IXVtDSDJdW0NIMl1jMVtjSF1bY0hdYyhbY0hdW2NIXTEpW0NASF0oW0NIMl0yKVtOSF1bQ0BIXShDMjMpW0NIXT1DKFtDSF09MylbQ0BIXTRbQ0BASF0oW0NAQEhdNDUpW0NIMl1bQ0gyXVtDSDJdNQ==

>  <s_glide_docking_method>  (1) 
confgen

>  <s_i_glide_gridfile>  (1) 
gpcr_drd2_6luq_protein_autoprepared_prepared

>  <s_lp_Force_Field>  (1) 
S-OPLS

>  <s_lp_Variant>  (1) 
DiffSBDD_83_num_sample_100-2

>  <s_m_source_file>  (1) 
generated__ligand_DiffSBDD_2026-05-06_prepared.sdf

>  <GenAI_Model>  (1) 
DiffSBDD

>  <Protein>  (1) 
generic_title2

$$$$
DiffSBDD_29_num_sample_100
     RDKit          3D

  0  0  0  0  0  0  0  0  0  0999 V3000
M  V30 BEGIN CTAB
M  V30 COUNTS 73 77 0 0 1
M  V30 BEGIN ATOM
M  V30 1 F 13.200858 8.903815 -7.680118 0
M  V30 2 O 7.830733 6.052511 -14.983586 0
M  V30 3 N 6.298779 2.947760 -12.543457 0
M  V30 4 C 7.555115 1.279821 -17.263159 0
M  V30 5 N 11.581767 9.796208 -5.479737 0
M  V30 6 C 12.375385 9.170095 -3.207714 0
M  V30 7 C 8.354525 5.825022 -12.637427 0 CFG=1
M  V30 8 C 12.115114 6.808334 -2.607415 0
M  V30 9 C 11.812849 8.871716 -4.456906 0
M  V30 10 C 5.858844 3.894808 -11.595203 0
M  V30 11 C 7.384737 3.211798 -15.535196 0
M  V30 12 N 8.634822 6.083969 -10.197501 0
M  V30 13 C 5.821803 -0.271696 -16.251540 0 CFG=1
M  V30 14 O 4.461898 -0.630597 -16.312881 0
M  V30 15 O 7.834827 5.221965 -7.856571 0
M  V30 16 C 7.971322 1.296683 -13.369829 0
M  V30 17 C 7.588572 0.774850 -14.764427 0 CFG=2
M  V30 18 C 11.037126 9.028770 -6.688387 0 CFG=2
M  V30 19 C 10.457664 6.531976 -6.712215 0
M  V30 20 C 9.876483 5.758281 -12.835921 0
M  V30 21 C 6.569862 4.896986 -11.006445 0
M  V30 22 C 7.587149 5.224844 -13.862939 0 CFG=2
M  V30 23 N 9.976642 6.574500 -8.018060 0
M  V30 24 C 11.557854 6.563067 -3.885923 0
M  V30 25 C 10.943180 7.611052 -6.082529 0
M  V30 26 C 7.934402 1.804370 -15.865029 0 CFG=1
M  V30 27 C 12.528756 8.124688 -2.266367 0
M  V30 28 C 6.110309 0.775614 -17.337755 0
M  V30 29 F 11.529782 8.442674 -8.991004 0
M  V30 30 C 7.655109 2.780093 -13.063352 0 CFG=1
M  V30 31 C 6.142301 0.252139 -14.842851 0
M  V30 32 C 8.040685 5.221112 -11.236384 0 CFG=1
M  V30 33 C 7.964793 3.758058 -14.213941 0 CFG=1
M  V30 34 C 11.919661 9.160895 -7.943864 0
M  V30 35 C 11.434662 7.634449 -4.776720 0
M  V30 36 O 9.834832 4.169343 -8.930878 0
M  V30 37 S 9.019252 5.351235 -8.691676 0
M  V30 38 H 7.530665 6.925200 -14.780497 0
M  V30 39 H 7.727199 2.049817 -18.015994 0
M  V30 40 H 8.221382 0.454617 -17.518263 0
M  V30 41 H 12.220268 10.564023 -5.621212 0
M  V30 42 H 12.676199 10.169301 -2.962477 0
M  V30 43 H 8.069954 6.878383 -12.595284 0
M  V30 44 H 12.226033 6.000770 -1.897574 0
M  V30 45 H 4.821865 3.769881 -11.348951 0
M  V30 46 H 7.623512 3.888380 -16.355830 0
M  V30 47 H 6.302519 3.187368 -15.453194 0
M  V30 48 H 7.982744 6.866719 -9.996613 0
M  V30 49 H 6.415834 -1.166192 -16.445610 0
M  V30 50 H 3.939244 0.115556 -16.065924 0
M  V30 51 H 7.561334 0.651453 -12.590998 0
M  V30 52 H 9.049460 1.175628 -13.279471 0
M  V30 53 H 8.214729 -0.101614 -14.940615 0
M  V30 54 H 10.022416 9.366909 -6.899490 0
M  V30 55 H 10.396663 5.563331 -6.258215 0
M  V30 56 H 10.246435 4.793138 -12.495075 0
M  V30 57 H 10.397836 6.530466 -12.270054 0
M  V30 58 H 10.176281 5.826794 -13.880182 0
M  V30 59 H 6.511231 5.310859 -13.710186 0
M  V30 60 H 9.997895 7.461605 -8.518979 0
M  V30 61 H 11.242307 5.572346 -4.167230 0
M  V30 62 H 9.019781 1.898501 -15.892229 0
M  V30 63 H 12.954142 8.327933 -1.294985 0
M  V30 64 H 5.919146 0.351579 -18.324914 0
M  V30 65 H 5.435035 1.620217 -17.234167 0
M  V30 66 H 8.374140 2.923449 -12.282279 0
M  V30 67 H 5.434969 1.022596 -14.550900 0
M  V30 68 H 6.009688 -0.558267 -14.123541 0
M  V30 69 H 8.588521 4.308087 -11.074641 0
M  V30 70 H 9.034842 3.769315 -14.358641 0
M  V30 71 H 11.834843 10.169130 -8.322775 0
M  V30 72 H 6.060090 5.538238 -10.302960 0
M  V30 73 H 5.624320 2.270242 -12.870501 0
M  V30 END ATOM
M  V30 BEGIN BOND
M  V30 1 1 9 5
M  V30 2 2 9 6
M  V30 3 1 10 3
M  V30 4 1 14 13
M  V30 5 1 17 16
M  V30 6 1 18 5
M  V30 7 1 20 7
M  V30 8 2 21 10
M  V30 9 1 22 2
M  V30 10 1 22 7
M  V30 11 1 23 19
M  V30 12 1 24 8
M  V30 13 1 25 18
M  V30 14 2 25 19
M  V30 15 1 26 4
M  V30 16 1 26 11
M  V30 17 1 26 17
M  V30 18 1 27 6
M  V30 19 2 27 8
M  V30 20 1 28 4
M  V30 21 1 28 13
M  V30 22 1 30 3
M  V30 23 1 30 16
M  V30 24 1 31 13
M  V30 25 1 31 17
M  V30 26 1 32 7
M  V30 27 1 32 12
M  V30 28 1 32 21
M  V30 29 1 33 11
M  V30 30 1 33 22
M  V30 31 1 33 30
M  V30 32 1 34 1
M  V30 33 1 34 18
M  V30 34 1 34 29
M  V30 35 1 35 9
M  V30 36 2 35 24
M  V30 37 1 35 25
M  V30 38 1 37 12
M  V30 39 2 37 15
M  V30 40 1 37 23
M  V30 41 2 37 36
M  V30 42 1 38 2
M  V30 43 1 39 4
M  V30 44 1 40 4
M  V30 45 1 41 5
M  V30 46 1 42 6
M  V30 47 1 7 43 CFG=1
M  V30 48 1 44 8
M  V30 49 1 45 10
M  V30 50 1 46 11
M  V30 51 1 47 11
M  V30 52 1 48 12
M  V30 53 1 13 49 CFG=3
M  V30 54 1 50 14
M  V30 55 1 51 16
M  V30 56 1 52 16
M  V30 57 1 17 53 CFG=3
M  V30 58 1 18 54 CFG=3
M  V30 59 1 55 19
M  V30 60 1 56 20
M  V30 61 1 57 20
M  V30 62 1 58 20
M  V30 63 1 22 59 CFG=1
M  V30 64 1 60 23
M  V30 65 1 61 24
M  V30 66 1 26 62 CFG=3
M  V30 67 1 63 27
M  V30 68 1 64 28
M  V30 69 1 65 28
M  V30 70 1 30 66 CFG=1
M  V30 71 1 67 31
M  V30 72 1 68 31
M  V30 73 1 32 69 CFG=3
M  V30 74 1 33 70 CFG=3
M  V30 75 1 71 34
M  V30 76 1 72 21
M  V30 77 1 73 3
M  V30 END BOND
M  V30 END CTAB
M  END
>  <i_epik_Tot_Q>  (1) 
0

>  <i_epik_Tot_abs_Q>  (1) 
0

>  <i_i_glide_confnum>  (1) 
62

>  <i_i_glide_lignum>  (1) 
51

>  <i_i_glide_posenum>  (1) 
400

>  <i_i_glide_rotatable_bonds>  (1) 
7

>  <i_lp_mmshare_version>  (1) 
72125

>  <i_m_source_file_index>  (1) 
30

>  <i_f3d_flags>  (1) 
0

>  <num_sample>  (1) 
100

>  <b_lp_Chiralities_Consistent>  (1) 
1

>  <r_epik_Charging_Adjusted_Penalty>  (1) 
1.5459132844328078e-07

>  <r_epik_Ionization_Penalty>  (1) 
1.5952634643945804

>  <r_epik_Ionization_Penalty_Charging>  (1) 
1.5459132844328078e-07

>  <r_epik_Ionization_Penalty_Neutral>  (1) 
1.595263309803252

>  <r_epik_State_Penalty>  (1) 
-0

>  <r_glide_ring_energy>  (1) 
0

>  <r_i_docking_score>  (1) 
-7.7597289714599889

>  <r_i_glide_ecoul>  (1) 
-5.8192023215675377

>  <r_i_glide_eff_state_penalty>  (1) 
-0

>  <r_i_glide_einternal>  (1) 
5.9465158507910312

>  <r_i_glide_emodel>  (1) 
-53.151374915683583

>  <r_i_glide_emodel_strain>  (1) 
0.9321338132189112

>  <r_i_glide_energy>  (1) 
-45.073062400485618

>  <r_i_glide_erotb>  (1) 
0.28486469644810641

>  <r_i_glide_esite>  (1) 
-0.16648598057926317

>  <r_i_glide_evdw>  (1) 
-39.25386007891808

>  <r_i_glide_gscore>  (1) 
-7.7597289714599889

>  <r_i_glide_gscore_strain>  (1) 
0

>  <r_i_glide_hbond>  (1) 
-0.16

>  <r_i_glide_ligand_efficiency>  (1) 
-0.20972240463405376

>  <r_i_glide_ligand_efficiency_ln>  (1) 
-1.6829033000524651

>  <r_i_glide_ligand_efficiency_sa>  (1) 
-0.69884157950132852

>  <r_i_glide_lipo>  (1) 
-3.9715550519766127

>  <r_i_glide_metal>  (1) 
-0

>  <r_i_glide_rewards>  (1) 
-0.91097928317118404

>  <r_lp_Energy>  (1) 
36.760202

>  <r_lp_tautomer_probability>  (1) 
1

>  <s_epik_Chemistry_Notes>  (1) 
This compound has an imine and may undergo hydrolysis.

>  <s_epik_cmdline>  (1) 
J2VwaWtfcHl0aG9uJywgJy1waHQnLCAnMS4wJywgJy1waCcsICc3LjQnLCAnLXRuJywgJzgnLCAnLW1hJywgJzUwMCcsICctaW1hZScsICc8aW5maWxlLm1hZT4nLCAnLW9tYWUnLCAnPG91dGZpbGUubWFlPic=

>  <s_epik_input>  (1) 
W2NIXTFbY0hdW2NIXVtjSF1jKGMxMilDKFxbQ0BASF0oW05IXTIpW0NIXShGKUYpPVtDSF1cW05IXVMoPU8pKD1PKVtOSF1bQ0BIXShbQ0BASF0oW0NIM10pW0NASF0zW09IXSlbQ0gyXVxbQ0hdPU5cW0NAQEhdKFtDSDJdNClbQ0BIXTNbQ0gyXVtDQEBIXShbQ0BASF00NSlbQ0gyXVtDSDJdW0NASF0oW09IXSlbQ0gyXTU=

>  <s_glide_docking_method>  (1) 
confgen

>  <s_i_glide_gridfile>  (1) 
gpcr_drd2_6luq_protein_autoprepared_prepared

>  <s_lp_Force_Field>  (1) 
S-OPLS

>  <s_lp_Variant>  (1) 
DiffSBDD_29_num_sample_100-1

>  <s_m_source_file>  (1) 
generated__ligand_DiffSBDD_2026-05-06_prepared.sdf

>  <GenAI_Model>  (1) 
DiffSBDD

>  <Protein>  (1) 
generic_title2

$$$$
DiffSBDD_68_num_sample_100
     RDKit          3D

  0  0  0  0  0  0  0  0  0  0999 V3000
M  V30 BEGIN CTAB
M  V30 COUNTS 88 93 0 0 1
M  V30 BEGIN ATOM
M  V30 1 C 8.656120 5.369300 -16.897713 0
M  V30 2 C 6.634839 3.123771 -13.652319 0
M  V30 3 C 12.527077 8.714112 -7.507535 0
M  V30 4 C 9.137022 6.223211 -11.083676 0
M  V30 5 C 5.374920 1.304286 -20.298564 0
M  V30 6 C 8.892138 1.664636 -18.236040 0 CFG=1
M  V30 7 O 7.440312 4.316302 -18.678971 0
M  V30 8 C 8.108747 1.069195 -15.306929 0
M  V30 9 O 5.834845 0.639991 -21.452989 0
M  V30 10 C 7.285140 4.799279 -10.122054 0
M  V30 11 C 9.267465 0.345570 -17.493075 0
M  V30 12 C 11.465095 8.773027 -6.490151 0
M  V30 13 C 10.946396 7.942342 -9.298372 0 CFG=2
M  V30 14 C 7.869305 1.393347 -19.423001 0 CFG=2
M  V30 15 C 8.454187 4.543151 -14.613959 0 CFG=1
M  V30 16 C 9.834831 8.005115 -8.311517 0 CFG=2
M  V30 17 O 5.133941 2.672221 -20.536293 0
M  V30 18 C 10.084918 8.263126 -6.853853 0
M  V30 19 C 4.245184 -2.816883 -18.291667 0
M  V30 20 C 7.615798 2.370167 -15.970738 0 CFG=1
M  V30 21 C 7.111259 5.448440 -12.615932 0 CFG=2
M  V30 22 C 6.059394 4.343420 -12.901087 0
M  V30 23 O 7.993272 2.415949 -20.400553 0
M  V30 24 O 6.223357 -0.204628 -18.648960 0
M  V30 25 C 10.245841 6.669045 -8.896249 0 CFG=1
M  V30 26 C 8.146594 4.168914 -17.684786 0
M  V30 27 C 5.135557 -0.508115 -17.783455 0 CFG=1
M  V30 28 C 7.859204 5.788953 -13.917505 0
M  V30 29 C 8.385203 -0.068549 -16.307502 0
M  V30 30 C 7.310746 3.550531 -14.972309 0 CFG=1
M  V30 31 C 5.103956 -2.018126 -17.637736 0
M  V30 32 O 5.292788 0.148601 -16.529402 0
M  V30 33 C 12.267369 8.323967 -8.775239 0
M  V30 34 C 8.537008 2.770899 -17.162992 0 CFG=2
M  V30 35 C 10.240470 2.102841 -18.888920 0
M  V30 36 O 4.234827 -0.230695 -15.616636 0
M  V30 37 N 9.220092 6.032294 -9.653376 0
M  V30 38 S 11.834841 9.369303 -4.983193 0
M  V30 39 C 8.297979 5.270178 -9.127014 0
M  V30 40 O 9.289654 4.969411 -15.689489 0
M  V30 41 O 8.234840 4.969299 -7.935748 0
M  V30 42 C 8.061871 5.116410 -11.438439 0 CFG=1
M  V30 43 C 6.357566 1.137299 -19.103868 0 CFG=2
M  V30 44 H 9.384834 5.897131 -17.512660 0
M  V30 45 H 7.834522 6.058586 -16.704556 0
M  V30 46 H 7.346911 2.600028 -13.013659 0
M  V30 47 H 5.834855 2.413812 -13.856178 0
M  V30 48 H 13.534792 8.989716 -7.235385 0
M  V30 49 H 10.090158 6.064523 -11.589926 0
M  V30 50 H 8.766720 7.228229 -11.294784 0
M  V30 51 H 4.400736 0.882179 -20.061206 0
M  V30 52 H 7.376512 0.708531 -14.585079 0
M  V30 53 H 9.006296 1.278255 -14.734391 0
M  V30 54 H 5.071578 0.370512 -21.951091 0
M  V30 55 H 6.396820 5.423290 -10.021661 0
M  V30 56 H 6.994155 3.769306 -9.991113 0
M  V30 57 H 9.331032 -0.483700 -18.198987 0
M  V30 58 H 10.276061 0.434809 -17.091684 0
M  V30 59 H 10.744027 8.362679 -10.281250 0
M  V30 60 H 8.215133 0.507923 -19.957116 0
M  V30 61 H 9.128505 4.059319 -13.909418 0
M  V30 62 H 8.960200 8.512886 -8.696815 0
M  V30 63 H 5.975771 3.066915 -20.716671 0
M  V30 64 H 9.900476 7.340891 -6.300490 0
M  V30 65 H 4.265591 -3.887804 -18.151244 0
M  V30 66 H 3.513695 -2.410060 -18.972114 0
M  V30 67 H 6.643676 2.127243 -16.378734 0
M  V30 68 H 6.565181 6.343936 -12.314310 0
M  V30 69 H 5.570132 4.016829 -11.984015 0
M  V30 70 H 5.261852 4.774977 -13.506232 0
M  V30 71 H 7.873168 3.245678 -19.947193 0
M  V30 72 H 10.822722 6.006914 -8.251825 0
M  V30 73 H 4.189311 -0.199741 -18.226121 0
M  V30 74 H 8.634838 6.520818 -13.710721 0
M  V30 75 H 7.165108 6.288985 -14.592561 0
M  V30 76 H 7.481444 -0.528333 -16.663972 0
M  V30 77 H 8.874943 -0.887006 -15.778485 0
M  V30 78 H 6.559687 4.149589 -15.487803 0
M  V30 79 H 5.826473 -2.453281 -16.962778 0
M  V30 80 H 13.082407 8.295400 -9.483131 0
M  V30 81 H 9.502137 2.931893 -16.686422 0
M  V30 82 H 11.041792 2.205149 -18.155557 0
M  V30 83 H 10.576871 1.376123 -19.629209 0
M  V30 84 H 10.179793 3.068827 -19.390266 0
M  V30 85 H 4.632236 -0.967918 -15.170182 0
M  V30 86 H 9.335672 8.969284 -6.500414 0
M  V30 87 H 8.615352 4.209930 -11.687951 0
M  V30 88 H 6.028115 1.828031 -18.334051 0
M  V30 END ATOM
M  V30 BEGIN BOND
M  V30 1 1 9 5
M  V30 2 1 11 6
M  V30 3 1 12 3
M  V30 4 1 14 6
M  V30 5 1 16 13
M  V30 6 1 17 5
M  V30 7 1 18 12
M  V30 8 1 18 16
M  V30 9 1 20 8
M  V30 10 1 22 2
M  V30 11 1 22 21
M  V30 12 1 23 14
M  V30 13 1 25 13
M  V30 14 1 25 16
M  V30 15 1 26 1
M  V30 16 2 26 7
M  V30 17 1 27 24
M  V30 18 1 28 15
M  V30 19 1 28 21
M  V30 20 1 29 8
M  V30 21 1 29 11
M  V30 22 1 30 2
M  V30 23 1 30 15
M  V30 24 1 30 20
M  V30 25 2 31 19
M  V30 26 1 31 27
M  V30 27 1 32 27
M  V30 28 2 33 3
M  V30 29 1 33 13
M  V30 30 1 34 6
M  V30 31 1 34 20
M  V30 32 1 34 26
M  V30 33 1 6 35 CFG=3
M  V30 34 1 36 32
M  V30 35 1 37 4
M  V30 36 1 37 25
M  V30 37 2 38 12
M  V30 38 1 39 10
M  V30 39 1 39 37
M  V30 40 1 40 1
M  V30 41 1 40 15
M  V30 42 2 41 39
M  V30 43 1 42 4
M  V30 44 1 42 10
M  V30 45 1 42 21
M  V30 46 1 43 5
M  V30 47 1 43 14
M  V30 48 1 43 24
M  V30 49 1 44 1
M  V30 50 1 45 1
M  V30 51 1 46 2
M  V30 52 1 47 2
M  V30 53 1 48 3
M  V30 54 1 49 4
M  V30 55 1 50 4
M  V30 56 1 51 5
M  V30 57 1 52 8
M  V30 58 1 53 8
M  V30 59 1 54 9
M  V30 60 1 55 10
M  V30 61 1 56 10
M  V30 62 1 57 11
M  V30 63 1 58 11
M  V30 64 1 13 59 CFG=3
M  V30 65 1 14 60 CFG=3
M  V30 66 1 15 61 CFG=1
M  V30 67 1 16 62 CFG=3
M  V30 68 1 63 17
M  V30 69 1 64 18
M  V30 70 1 65 19
M  V30 71 1 66 19
M  V30 72 1 20 67 CFG=3
M  V30 73 1 21 68 CFG=1
M  V30 74 1 69 22
M  V30 75 1 70 22
M  V30 76 1 71 23
M  V30 77 1 25 72 CFG=1
M  V30 78 1 27 73 CFG=3
M  V30 79 1 74 28
M  V30 80 1 75 28
M  V30 81 1 76 29
M  V30 82 1 77 29
M  V30 83 1 30 78 CFG=3
M  V30 84 1 79 31
M  V30 85 1 80 33
M  V30 86 1 34 81 CFG=1
M  V30 87 1 82 35
M  V30 88 1 83 35
M  V30 89 1 84 35
M  V30 90 1 85 36
M  V30 91 1 86 18
M  V30 92 1 42 87 CFG=3
M  V30 93 1 43 88 CFG=1
M  V30 END BOND
M  V30 END CTAB
M  END
>  <i_epik_Tot_Q>  (1) 
0

>  <i_epik_Tot_abs_Q>  (1) 
0

>  <i_i_glide_confnum>  (1) 
2223

>  <i_i_glide_lignum>  (1) 
138

>  <i_i_glide_posenum>  (1) 
126

>  <i_i_glide_rotatable_bonds>  (1) 
13

>  <i_lp_mmshare_version>  (1) 
72125

>  <i_m_source_file_index>  (1) 
69

>  <i_f3d_flags>  (1) 
0

>  <num_sample>  (1) 
100

>  <b_lp_Chiralities_Consistent>  (1) 
1

>  <r_epik_Charging_Adjusted_Penalty>  (1) 
0

>  <r_epik_Ionization_Penalty>  (1) 
0.00032218278010154739

>  <r_epik_Ionization_Penalty_Charging>  (1) 
0

>  <r_epik_Ionization_Penalty_Neutral>  (1) 
0.00032218278010154739

>  <r_epik_State_Penalty>  (1) 
-0

>  <r_glide_ring_energy>  (1) 
0

>  <r_i_docking_score>  (1) 
-7.6345268470788863

>  <r_i_glide_ecoul>  (1) 
-6.2058129310336732

>  <r_i_glide_eff_state_penalty>  (1) 
-0

>  <r_i_glide_einternal>  (1) 
30.665494471043896

>  <r_i_glide_emodel>  (1) 
-61.690018109770406

>  <r_i_glide_emodel_strain>  (1) 
0.84307770639584589

>  <r_i_glide_energy>  (1) 
-58.521073904356356

>  <r_i_glide_erotb>  (1) 
0.36271052330308029

>  <r_i_glide_esite>  (1) 
-0.17732848620660169

>  <r_i_glide_evdw>  (1) 
-52.315260973322687

>  <r_i_glide_gscore>  (1) 
-7.6345268470788863

>  <r_i_glide_gscore_strain>  (1) 
0

>  <r_i_glide_hbond>  (1) 
-0.36252170943383372

>  <r_i_glide_ligand_efficiency>  (1) 
-0.17754713597857874

>  <r_i_glide_ligand_efficiency_ln>  (1) 
-1.6034879151402288

>  <r_i_glide_ligand_efficiency_sa>  (1) 
-0.62201829181457091

>  <r_i_glide_lipo>  (1) 
-1.8769407979795243

>  <r_i_glide_metal>  (1) 
-0

>  <r_i_glide_rewards>  (1) 
-2.0338113884408222

>  <r_lp_Energy>  (1) 
42.877758

>  <r_lp_tautomer_probability>  (1) 
1

>  <s_epik_Chemistry_Notes>  (1) 
This compound contains an acetal/aminal-like group ( X-CH(R)-Y where X, Y are N, S, or O) that may be acid/base labile, releasing an aldehyde.

>  <s_epik_cmdline>  (1) 
J2VwaWtfcHl0aG9uJywgJy1waHQnLCAnMS4wJywgJy1waCcsICc3LjQnLCAnLXRuJywgJzgnLCAnLW1hJywgJzUwMCcsICctaW1hZScsICc8aW5maWxlLm1hZT4nLCAnLW9tYWUnLCAnPG91dGZpbGUubWFlPic=

>  <s_epik_input>  (1) 
W0NIMl09W0NIXVtDQEBIXShPW09IXSlPW0NASF0oW0NIXShbT0hdKVtPSF0pW0NAQEhdKFtPSF0pW0NAXShbQ0gzXSkoW0NIMl1bQ0gyXVtDSDJdMSlbQ0BASF0oQyg9TylbQ0gyXU8yKVtDQEBIXTFbQ0BASF0oW0NAQEhdMjMpW0NIMl1bQ0gyXVtDQEhdKFtDSDJdMylbQ0BIXShbQ0gyXUM0PU8pW0NIMl1ONFtDQEBIXTVbQ0BIXShbQ0BIXTU2KVtDSF09QyhbU0hdKVtDSF09W0NIXTY=

>  <s_glide_docking_method>  (1) 
confgen

>  <s_i_glide_gridfile>  (1) 
gpcr_drd2_6luq_protein_autoprepared_prepared

>  <s_lp_Force_Field>  (1) 
S-OPLS

>  <s_lp_Variant>  (1) 
DiffSBDD_68_num_sample_100-2

>  <s_m_source_file>  (1) 
generated__ligand_DiffSBDD_2026-05-06_prepared.sdf

>  <GenAI_Model>  (1) 
DiffSBDD

>  <Protein>  (1) 
generic_title2

$$$$
DiffSBDD_29_num_sample_100
     RDKit          3D

  0  0  0  0  0  0  0  0  0  0999 V3000
M  V30 BEGIN CTAB
M  V30 COUNTS 73 77 0 0 1
M  V30 BEGIN ATOM
M  V30 1 F 13.101842 8.767896 -7.638904 0
M  V30 2 O 9.434756 3.581860 -12.691663 0
M  V30 3 N 5.943250 6.357865 -13.514632 0
M  V30 4 C 9.437120 3.614459 -16.779582 0
M  V30 5 N 11.475533 9.749443 -5.421357 0
M  V30 6 C 12.337174 9.153679 -3.166878 0
M  V30 7 C 8.751958 5.867022 -12.505825 0 CFG=1
M  V30 8 C 12.191878 6.777631 -2.574319 0
M  V30 9 C 11.765591 8.834381 -4.406834 0
M  V30 10 C 5.652178 6.169664 -12.154003 0
M  V30 11 C 7.539359 3.142200 -15.047648 0
M  V30 12 N 8.634811 6.169294 -10.096299 0
M  V30 13 C 9.294032 5.571473 -18.323815 0 CFG=2
M  V30 14 O 9.651673 6.084082 -19.589845 0
M  V30 15 O 7.834839 5.083839 -7.864282 0
M  V30 16 C 7.202414 6.024627 -15.639958 0
M  V30 17 C 7.270222 5.039067 -16.822895 0 CFG=2
M  V30 18 C 10.953768 8.969589 -6.628830 0 CFG=2
M  V30 19 C 10.472202 6.452125 -6.662173 0
M  V30 20 C 10.182778 6.388317 -12.288285 0
M  V30 21 C 6.473013 5.780580 -11.145504 0
M  V30 22 C 8.802038 4.634814 -13.403776 0 CFG=2
M  V30 23 N 9.978077 6.496969 -7.959695 0
M  V30 24 C 11.622999 6.512754 -3.843437 0
M  V30 25 C 10.922312 7.544924 -6.027800 0
M  V30 26 C 7.924198 3.674299 -16.466149 0 CFG=1
M  V30 27 C 12.554237 8.110378 -2.234054 0
M  V30 28 C 9.774308 4.126091 -18.183220 0
M  V30 29 F 11.385581 8.511897 -8.957405 0
M  V30 30 C 6.548427 5.356985 -14.413562 0 CFG=1
M  V30 31 C 7.771695 5.644143 -18.154792 0
M  V30 32 C 7.971006 5.504121 -11.215863 0 CFG=1
M  V30 33 C 7.417244 4.190247 -13.898575 0 CFG=1
M  V30 34 C 11.842427 9.132245 -7.872361 0
M  V30 35 C 11.434837 7.582022 -4.726085 0
M  V30 36 O 9.834836 4.169374 -9.079534 0
M  V30 37 S 9.016558 5.303345 -8.689187 0
M  V30 38 H 10.364343 3.770549 -12.657314 0
M  V30 39 H 10.025436 4.191402 -16.075773 0
M  V30 40 H 9.787045 2.585929 -16.691701 0
M  V30 41 H 12.064758 10.556072 -5.555237 0
M  V30 42 H 12.599424 10.168932 -2.923193 0
M  V30 43 H 8.288264 6.707238 -13.012331 0
M  V30 44 H 12.352632 5.972934 -1.871784 0
M  V30 45 H 4.634898 6.408729 -11.923655 0
M  V30 46 H 6.572184 2.651695 -15.138879 0
M  V30 47 H 8.216457 2.340971 -14.755381 0
M  V30 48 H 8.037610 6.986537 -9.846516 0
M  V30 49 H 9.781014 6.175086 -17.562413 0
M  V30 50 H 9.212617 5.581777 -20.258376 0
M  V30 51 H 8.194238 6.400472 -15.392119 0
M  V30 52 H 6.616699 6.895235 -15.942568 0
M  V30 53 H 6.234816 4.825386 -17.040385 0
M  V30 54 H 9.931252 9.279889 -6.848757 0
M  V30 55 H 10.454355 5.475779 -6.222459 0
M  V30 56 H 10.634838 5.758835 -11.541621 0
M  V30 57 H 10.187340 7.411404 -11.912322 0
M  V30 58 H 10.801005 6.360724 -13.185574 0
M  V30 59 H 9.429000 4.884696 -14.247941 0
M  V30 60 H 9.967912 7.404563 -8.422351 0
M  V30 61 H 11.348569 5.509910 -4.124537 0
M  V30 62 H 7.494060 2.956424 -17.166767 0
M  V30 63 H 12.990494 8.325850 -1.270825 0
M  V30 64 H 9.309592 3.489460 -18.937497 0
M  V30 65 H 10.851720 4.070296 -18.344413 0
M  V30 66 H 5.644583 4.877869 -14.789198 0
M  V30 67 H 7.426231 6.673301 -18.259234 0
M  V30 68 H 7.308219 5.097723 -18.977194 0
M  V30 69 H 8.025691 4.440109 -10.997136 0
M  V30 70 H 6.891041 3.707321 -13.074209 0
M  V30 71 H 11.834851 10.169238 -8.165480 0
M  V30 72 H 6.046695 5.705946 -10.155882 0
M  V30 73 H 5.275796 6.936950 -14.006076 0
M  V30 END ATOM
M  V30 BEGIN BOND
M  V30 1 1 9 5
M  V30 2 2 9 6
M  V30 3 1 10 3
M  V30 4 1 14 13
M  V30 5 1 17 16
M  V30 6 1 18 5
M  V30 7 1 20 7
M  V30 8 2 21 10
M  V30 9 1 22 2
M  V30 10 1 22 7
M  V30 11 1 23 19
M  V30 12 1 24 8
M  V30 13 1 25 18
M  V30 14 2 25 19
M  V30 15 1 26 4
M  V30 16 1 26 11
M  V30 17 1 26 17
M  V30 18 1 27 6
M  V30 19 2 27 8
M  V30 20 1 28 4
M  V30 21 1 28 13
M  V30 22 1 30 3
M  V30 23 1 30 16
M  V30 24 1 31 13
M  V30 25 1 31 17
M  V30 26 1 32 7
M  V30 27 1 32 12
M  V30 28 1 32 21
M  V30 29 1 33 11
M  V30 30 1 33 22
M  V30 31 1 33 30
M  V30 32 1 34 1
M  V30 33 1 34 18
M  V30 34 1 34 29
M  V30 35 1 35 9
M  V30 36 2 35 24
M  V30 37 1 35 25
M  V30 38 1 37 12
M  V30 39 2 37 15
M  V30 40 1 37 23
M  V30 41 2 37 36
M  V30 42 1 38 2
M  V30 43 1 39 4
M  V30 44 1 40 4
M  V30 45 1 41 5
M  V30 46 1 42 6
M  V30 47 1 7 43 CFG=3
M  V30 48 1 44 8
M  V30 49 1 45 10
M  V30 50 1 46 11
M  V30 51 1 47 11
M  V30 52 1 48 12
M  V30 53 1 13 49 CFG=1
M  V30 54 1 50 14
M  V30 55 1 51 16
M  V30 56 1 52 16
M  V30 57 1 17 53 CFG=3
M  V30 58 1 18 54 CFG=3
M  V30 59 1 55 19
M  V30 60 1 56 20
M  V30 61 1 57 20
M  V30 62 1 58 20
M  V30 63 1 22 59 CFG=3
M  V30 64 1 60 23
M  V30 65 1 61 24
M  V30 66 1 26 62 CFG=3
M  V30 67 1 63 27
M  V30 68 1 64 28
M  V30 69 1 65 28
M  V30 70 1 30 66 CFG=3
M  V30 71 1 67 31
M  V30 72 1 68 31
M  V30 73 1 32 69 CFG=1
M  V30 74 1 33 70 CFG=1
M  V30 75 1 71 34
M  V30 76 1 72 21
M  V30 77 1 73 3
M  V30 END BOND
M  V30 END CTAB
M  END
>  <i_epik_Tot_Q>  (1) 
0

>  <i_epik_Tot_abs_Q>  (1) 
0

>  <i_i_glide_confnum>  (1) 
29

>  <i_i_glide_lignum>  (1) 
53

>  <i_i_glide_posenum>  (1) 
383

>  <i_i_glide_rotatable_bonds>  (1) 
7

>  <i_lp_mmshare_version>  (1) 
72125

>  <i_m_source_file_index>  (1) 
30

>  <i_f3d_flags>  (1) 
0

>  <num_sample>  (1) 
100

>  <b_lp_Chiralities_Consistent>  (1) 
1

>  <r_epik_Charging_Adjusted_Penalty>  (1) 
1.5459132844328078e-07

>  <r_epik_Ionization_Penalty>  (1) 
1.5952634643945804

>  <r_epik_Ionization_Penalty_Charging>  (1) 
1.5459132844328078e-07

>  <r_epik_Ionization_Penalty_Neutral>  (1) 
1.595263309803252

>  <r_epik_State_Penalty>  (1) 
-0

>  <r_glide_ring_energy>  (1) 
0

>  <r_i_docking_score>  (1) 
-7.574882408835828

>  <r_i_glide_ecoul>  (1) 
-7.1890107629612414

>  <r_i_glide_eff_state_penalty>  (1) 
-0

>  <r_i_glide_einternal>  (1) 
2.7841756307184102

>  <r_i_glide_emodel>  (1) 
-41.439578145642471

>  <r_i_glide_emodel_strain>  (1) 
1.8358022811409

>  <r_i_glide_energy>  (1) 
-39.081587638166539

>  <r_i_glide_erotb>  (1) 
0.28486469644810641

>  <r_i_glide_esite>  (1) 
-0.13537285882809658

>  <r_i_glide_evdw>  (1) 
-31.892576875205297

>  <r_i_glide_gscore>  (1) 
-7.574882408835828

>  <r_i_glide_gscore_strain>  (1) 
0

>  <r_i_glide_hbond>  (1) 
-0.39349239535173547

>  <r_i_glide_ligand_efficiency>  (1) 
-0.20472655159015751

>  <r_i_glide_ligand_efficiency_ln>  (1) 
-1.6428144140375422

>  <r_i_glide_ligand_efficiency_sa>  (1) 
-0.68219428882084554

>  <r_i_glide_lipo>  (1) 
-3.6863089565093676

>  <r_i_glide_metal>  (1) 
-0

>  <r_i_glide_rewards>  (1) 
-0.97159243639028237

>  <r_lp_Energy>  (1) 
49.148054999999999

>  <r_lp_tautomer_probability>  (1) 
1

>  <s_epik_Chemistry_Notes>  (1) 
This compound has an imine and may undergo hydrolysis.

>  <s_epik_cmdline>  (1) 
J2VwaWtfcHl0aG9uJywgJy1waHQnLCAnMS4wJywgJy1waCcsICc3LjQnLCAnLXRuJywgJzgnLCAnLW1hJywgJzUwMCcsICctaW1hZScsICc8aW5maWxlLm1hZT4nLCAnLW9tYWUnLCAnPG91dGZpbGUubWFlPic=

>  <s_epik_input>  (1) 
W2NIXTFbY0hdW2NIXVtjSF1jKGMxMilDKFxbQ0BASF0oW05IXTIpW0NIXShGKUYpPVtDSF1cW05IXVMoPU8pKD1PKVtOSF1bQ0BIXShbQ0BASF0oW0NIM10pW0NASF0zW09IXSlbQ0gyXVxbQ0hdPU5cW0NAQEhdKFtDSDJdNClbQ0BIXTNbQ0gyXVtDQEBIXShbQ0BASF00NSlbQ0gyXVtDSDJdW0NASF0oW09IXSlbQ0gyXTU=

>  <s_glide_docking_method>  (1) 
confgen

>  <s_i_glide_gridfile>  (1) 
gpcr_drd2_6luq_protein_autoprepared_prepared

>  <s_lp_Force_Field>  (1) 
S-OPLS

>  <s_lp_Variant>  (1) 
DiffSBDD_29_num_sample_100-3

>  <s_m_source_file>  (1) 
generated__ligand_DiffSBDD_2026-05-06_prepared.sdf

>  <GenAI_Model>  (1) 
DiffSBDD

>  <Protein>  (1) 
generic_title2

$$$$
DiffSBDD_29_num_sample_100
     RDKit          3D

  0  0  0  0  0  0  0  0  0  0999 V3000
M  V30 BEGIN CTAB
M  V30 COUNTS 73 77 0 0 1
M  V30 BEGIN ATOM
M  V30 1 F 13.096902 8.969296 -7.271308 0
M  V30 2 O 9.434871 4.169319 -13.168094 0
M  V30 3 N 5.996401 6.812399 -12.835092 0
M  V30 4 C 8.597182 4.912983 -17.057737 0
M  V30 5 N 11.443495 9.788837 -4.981882 0
M  V30 6 C 12.349663 9.149803 -2.771477 0
M  V30 7 C 8.899238 6.302225 -12.310151 0 CFG=1
M  V30 8 C 12.373530 6.747465 -2.291546 0
M  V30 9 C 11.811910 8.849891 -4.022298 0
M  V30 10 C 5.835381 6.281376 -11.558461 0
M  V30 11 C 7.267299 3.898237 -15.043499 0
M  V30 12 N 9.023978 6.276100 -9.878083 0
M  V30 13 C 7.489731 6.511045 -18.672486 0 CFG=2
M  V30 14 O 7.238185 6.766578 -20.037109 0
M  V30 15 O 7.863431 5.369294 -7.701603 0
M  V30 16 C 6.453976 6.741929 -15.307537 0
M  V30 17 C 6.254190 5.769352 -16.490737 0 CFG=2
M  V30 18 C 10.965354 9.041577 -6.218407 0 CFG=2
M  V30 19 C 10.686292 6.489941 -6.382215 0
M  V30 20 C 10.396996 6.698329 -12.177239 0
M  V30 21 C 6.791044 5.755966 -10.747059 0
M  V30 22 C 8.733810 5.335492 -13.500134 0 CFG=2
M  V30 23 N 10.181278 6.554204 -7.675356 0
M  V30 24 C 11.834763 6.501679 -3.571957 0
M  V30 25 C 11.055080 7.584197 -5.697136 0
M  V30 26 C 7.231025 4.572427 -16.437174 0 CFG=1
M  V30 27 C 12.634841 8.085362 -1.888400 0
M  V30 28 C 8.407526 5.286855 -18.535737 0
M  V30 29 F 11.339311 8.912755 -8.573715 0
M  V30 30 C 6.269434 5.960349 -13.989491 0 CFG=1
M  V30 31 C 6.152176 6.367270 -17.916080 0
M  V30 32 C 8.308411 5.680933 -11.012358 0 CFG=1
M  V30 33 C 7.311888 4.845957 -13.814807 0 CFG=1
M  V30 34 C 11.835068 9.369525 -7.424699 0
M  V30 35 C 11.572579 7.594423 -4.402519 0
M  V30 36 O 9.835033 4.169353 -8.696966 0
M  V30 37 S 9.141042 5.414763 -8.414093 0
M  V30 38 H 10.369863 4.346287 -13.182909 0
M  V30 39 H 9.075446 5.740802 -16.536928 0
M  V30 40 H 9.268669 4.056584 -16.980289 0
M  V30 41 H 11.954204 10.654455 -5.071975 0
M  V30 42 H 12.530446 10.169309 -2.480359 0
M  V30 43 H 8.400584 7.245550 -12.521424 0
M  V30 44 H 12.586137 5.924722 -1.623486 0
M  V30 45 H 4.811681 6.331669 -11.218296 0
M  V30 46 H 6.353241 3.314305 -14.947166 0
M  V30 47 H 8.060695 3.152797 -15.008984 0
M  V30 48 H 8.477543 7.128959 -9.683484 0
M  V30 49 H 8.026055 7.369249 -18.291963 0
M  V30 50 H 6.819707 6.008451 -20.415885 0
M  V30 51 H 7.434655 7.211777 -15.325868 0
M  V30 52 H 5.715579 7.543091 -15.367020 0
M  V30 53 H 5.259926 5.369746 -16.315287 0
M  V30 54 H 9.923773 9.299011 -6.409104 0
M  V30 55 H 10.754826 5.496712 -5.988563 0
M  V30 56 H 11.011073 5.846322 -11.901347 0
M  V30 57 H 10.557149 7.484381 -11.437509 0
M  V30 58 H 10.815560 7.092847 -13.091650 0
M  V30 59 H 9.188272 5.769145 -14.383455 0
M  V30 60 H 10.136785 7.486502 -8.085747 0
M  V30 61 H 11.632884 5.495670 -3.900360 0
M  V30 62 H 6.824300 3.807416 -17.100476 0
M  V30 63 H 13.046254 8.287652 -0.912260 0
M  V30 64 H 7.987568 4.440132 -19.078344 0
M  V30 65 H 9.374618 5.497398 -18.990728 0
M  V30 66 H 5.319820 5.432448 -14.090366 0
M  V30 67 H 5.625620 7.323876 -17.892186 0
M  V30 68 H 5.514551 5.699365 -18.497483 0
M  V30 69 H 8.541021 4.617835 -10.972404 0
M  V30 70 H 6.986076 4.229379 -12.974998 0
M  V30 71 H 11.834836 10.448769 -7.492240 0
M  V30 72 H 6.481811 5.386332 -9.784961 0
M  V30 73 H 5.308519 7.512762 -13.072563 0
M  V30 END ATOM
M  V30 BEGIN BOND
M  V30 1 1 9 5
M  V30 2 2 9 6
M  V30 3 1 10 3
M  V30 4 1 14 13
M  V30 5 1 17 16
M  V30 6 1 18 5
M  V30 7 1 20 7
M  V30 8 2 21 10
M  V30 9 1 22 2
M  V30 10 1 22 7
M  V30 11 1 23 19
M  V30 12 1 24 8
M  V30 13 1 25 18
M  V30 14 2 25 19
M  V30 15 1 26 4
M  V30 16 1 26 11
M  V30 17 1 26 17
M  V30 18 1 27 6
M  V30 19 2 27 8
M  V30 20 1 28 4
M  V30 21 1 28 13
M  V30 22 1 30 3
M  V30 23 1 30 16
M  V30 24 1 31 13
M  V30 25 1 31 17
M  V30 26 1 32 7
M  V30 27 1 32 12
M  V30 28 1 32 21
M  V30 29 1 33 11
M  V30 30 1 33 22
M  V30 31 1 33 30
M  V30 32 1 34 1
M  V30 33 1 34 18
M  V30 34 1 34 29
M  V30 35 1 35 9
M  V30 36 2 35 24
M  V30 37 1 35 25
M  V30 38 1 37 12
M  V30 39 2 37 15
M  V30 40 1 37 23
M  V30 41 2 37 36
M  V30 42 1 38 2
M  V30 43 1 39 4
M  V30 44 1 40 4
M  V30 45 1 41 5
M  V30 46 1 42 6
M  V30 47 1 7 43 CFG=3
M  V30 48 1 44 8
M  V30 49 1 45 10
M  V30 50 1 46 11
M  V30 51 1 47 11
M  V30 52 1 48 12
M  V30 53 1 13 49 CFG=1
M  V30 54 1 50 14
M  V30 55 1 51 16
M  V30 56 1 52 16
M  V30 57 1 17 53 CFG=1
M  V30 58 1 18 54 CFG=3
M  V30 59 1 55 19
M  V30 60 1 56 20
M  V30 61 1 57 20
M  V30 62 1 58 20
M  V30 63 1 22 59 CFG=3
M  V30 64 1 60 23
M  V30 65 1 61 24
M  V30 66 1 26 62 CFG=3
M  V30 67 1 63 27
M  V30 68 1 64 28
M  V30 69 1 65 28
M  V30 70 1 30 66 CFG=3
M  V30 71 1 67 31
M  V30 72 1 68 31
M  V30 73 1 32 69 CFG=3
M  V30 74 1 33 70 CFG=1
M  V30 75 1 71 34
M  V30 76 1 72 21
M  V30 77 1 73 3
M  V30 END BOND
M  V30 END CTAB
M  END
>  <i_epik_Tot_Q>  (1) 
0

>  <i_epik_Tot_abs_Q>  (1) 
0

>  <i_i_glide_confnum>  (1) 
14

>  <i_i_glide_lignum>  (1) 
53

>  <i_i_glide_posenum>  (1) 
268

>  <i_i_glide_rotatable_bonds>  (1) 
7

>  <i_lp_mmshare_version>  (1) 
72125

>  <i_m_source_file_index>  (1) 
30

>  <i_f3d_flags>  (1) 
0

>  <num_sample>  (1) 
100

>  <b_lp_Chiralities_Consistent>  (1) 
1

>  <r_epik_Charging_Adjusted_Penalty>  (1) 
1.5459132844328078e-07

>  <r_epik_Ionization_Penalty>  (1) 
1.5952634643945804

>  <r_epik_Ionization_Penalty_Charging>  (1) 
1.5459132844328078e-07

>  <r_epik_Ionization_Penalty_Neutral>  (1) 
1.595263309803252

>  <r_epik_State_Penalty>  (1) 
-0

>  <r_glide_ring_energy>  (1) 
0

>  <r_i_docking_score>  (1) 
-7.5700203182219044

>  <r_i_glide_ecoul>  (1) 
-5.8992368414837593

>  <r_i_glide_eff_state_penalty>  (1) 
-0

>  <r_i_glide_einternal>  (1) 
3.5299485950135683

>  <r_i_glide_emodel>  (1) 
-41.371833668085713

>  <r_i_glide_emodel_strain>  (1) 
1.5333254733002946

>  <r_i_glide_energy>  (1) 
-39.087838244721056

>  <r_i_glide_erotb>  (1) 
0.28486469644810641

>  <r_i_glide_esite>  (1) 
-0.17073515375527182

>  <r_i_glide_evdw>  (1) 
-33.188601403237293

>  <r_i_glide_gscore>  (1) 
-7.5700203182219044

>  <r_i_glide_gscore_strain>  (1) 
0

>  <r_i_glide_hbond>  (1) 
-0.45226190180195758

>  <r_i_glide_ligand_efficiency>  (1) 
-0.20459514373572715

>  <r_i_glide_ligand_efficiency_ln>  (1) 
-1.6417599405669583

>  <r_i_glide_ligand_efficiency_sa>  (1) 
-0.68175640869683474

>  <r_i_glide_lipo>  (1) 
-3.9196541124164597

>  <r_i_glide_metal>  (1) 
-0

>  <r_i_glide_rewards>  (1) 
-0.76791825031189198

>  <r_lp_Energy>  (1) 
49.148054999999999

>  <r_lp_tautomer_probability>  (1) 
1

>  <s_epik_Chemistry_Notes>  (1) 
This compound has an imine and may undergo hydrolysis.

>  <s_epik_cmdline>  (1) 
J2VwaWtfcHl0aG9uJywgJy1waHQnLCAnMS4wJywgJy1waCcsICc3LjQnLCAnLXRuJywgJzgnLCAnLW1hJywgJzUwMCcsICctaW1hZScsICc8aW5maWxlLm1hZT4nLCAnLW9tYWUnLCAnPG91dGZpbGUubWFlPic=

>  <s_epik_input>  (1) 
W2NIXTFbY0hdW2NIXVtjSF1jKGMxMilDKFxbQ0BASF0oW05IXTIpW0NIXShGKUYpPVtDSF1cW05IXVMoPU8pKD1PKVtOSF1bQ0BIXShbQ0BASF0oW0NIM10pW0NASF0zW09IXSlbQ0gyXVxbQ0hdPU5cW0NAQEhdKFtDSDJdNClbQ0BIXTNbQ0gyXVtDQEBIXShbQ0BASF00NSlbQ0gyXVtDSDJdW0NASF0oW09IXSlbQ0gyXTU=

>  <s_glide_docking_method>  (1) 
confgen

>  <s_i_glide_gridfile>  (1) 
gpcr_drd2_6luq_protein_autoprepared_prepared

>  <s_lp_Force_Field>  (1) 
S-OPLS

>  <s_lp_Variant>  (1) 
DiffSBDD_29_num_sample_100-3

>  <s_m_source_file>  (1) 
generated__ligand_DiffSBDD_2026-05-06_prepared.sdf

>  <GenAI_Model>  (1) 
DiffSBDD

>  <Protein>  (1) 
generic_title2

$$$$
DiffSBDD_76_num_sample_100
     RDKit          3D

  0  0  0  0  0  0  0  0  0  0999 V3000
M  V30 BEGIN CTAB
M  V30 COUNTS 77 80 0 0 1
M  V30 BEGIN ATOM
M  V30 1 C 6.871003 6.968722 -14.644156 0
M  V30 2 C 5.366498 5.638273 -19.425479 0
M  V30 3 C 7.205530 4.591806 -12.452438 0
M  V30 4 N 7.018980 5.503575 -14.809814 0 CFG=2 CHG=1
M  V30 5 C 5.194083 4.986962 -20.684726 0
M  V30 6 C 11.700450 8.984282 -4.434413 0
M  V30 7 C 12.062781 9.740542 -5.476646 0
M  V30 8 C 10.571880 7.766674 -8.122805 0 CFG=1
M  V30 9 C 5.698025 6.851866 -16.938602 0
M  V30 10 N 9.435024 6.722983 -10.141692 0
M  V30 11 C 9.843808 7.726215 -11.139382 0
M  V30 12 C 6.475592 5.722012 -17.233227 0
M  V30 13 C 12.267551 9.192135 -6.874224 0
M  V30 14 C 7.086651 3.961652 -18.850530 0
M  V30 15 C 4.797214 7.314549 -17.901840 0
M  V30 16 C 10.234304 5.189556 -8.298486 0
M  V30 17 C 5.811287 7.551962 -15.592693 0
M  V30 18 C 8.998891 5.522622 -10.885867 0
M  V30 19 N 4.634702 6.736317 -19.101964 0
M  V30 20 O 8.688346 8.449559 -11.494409 0
M  V30 21 O 5.034778 3.471500 -23.240155 0
M  V30 22 C 11.741209 7.735122 -7.100502 0 CFG=1
M  V30 23 C 5.976847 3.833943 -21.019794 0
M  V30 24 C 7.533941 5.606149 -11.354273 0
M  V30 25 N 8.634972 7.231584 -6.692998 0 CHG=1
M  V30 26 C 10.445881 6.529554 -9.075454 0 CFG=2
M  V30 27 O 4.263304 5.479954 -21.569325 0 CHG=-1
M  V30 28 C 7.907717 4.871100 -13.798931 0
M  V30 29 C 6.320585 5.098880 -18.505621 0
M  V30 30 C 7.444298 5.170127 -16.192173 0
M  V30 31 C 9.276969 8.276075 -7.490452 0
M  V30 32 C 11.434744 7.579494 -4.585911 0
M  V30 33 C 11.434670 6.990737 -5.786160 0
M  V30 34 C 5.817011 3.128099 -22.360788 0
M  V30 35 C 6.916639 3.338918 -20.091260 0
M  V30 36 C 6.719139 1.917770 -22.592999 0
M  V30 37 H 6.594615 7.229824 -13.624810 0
M  V30 38 H 7.833562 7.436021 -14.823791 0
M  V30 39 H 7.507046 3.606611 -12.094907 0
M  V30 40 H 6.124940 4.538603 -12.581049 0
M  V30 41 H 11.589471 9.442406 -3.460461 0
M  V30 42 H 12.234428 10.793291 -5.343457 0
M  V30 43 H 10.845921 8.568819 -8.798510 0
M  V30 44 H 10.294296 7.272688 -12.020984 0
M  V30 45 H 10.568672 8.444674 -10.772606 0
M  V30 46 H 13.339609 9.212818 -7.074760 0
M  V30 47 H 11.834838 9.911486 -7.565108 0
M  V30 48 H 7.810655 3.559815 -18.163745 0
M  V30 49 H 4.176295 8.168889 -17.698733 0
M  V30 50 H 11.055527 5.015175 -7.618204 0
M  V30 51 H 9.295871 5.126233 -7.753628 0
M  V30 52 H 10.236313 4.287350 -8.901256 0
M  V30 53 H 6.032004 8.603121 -15.774220 0
M  V30 54 H 4.840479 7.543329 -15.107822 0
M  V30 55 H 9.701644 5.298061 -11.691092 0
M  V30 56 H 8.965118 4.617917 -10.300042 0
M  V30 57 H 8.022253 8.235286 -10.838689 0
M  V30 58 H 12.561288 7.190492 -7.559231 0
M  V30 59 H 6.899365 5.423523 -10.485727 0
M  V30 60 H 7.243221 6.589919 -11.691242 0
M  V30 61 H 7.616969 7.376914 -6.691680 0
M  V30 62 H 8.770817 6.363213 -7.186324 0
M  V30 63 H 11.412511 6.569585 -9.576021 0
M  V30 64 H 8.821273 5.457203 -13.684251 0
M  V30 65 H 8.236743 3.901813 -14.176506 0
M  V30 66 H 8.450861 5.539769 -16.393036 0
M  V30 67 H 7.458000 4.083470 -16.232769 0
M  V30 68 H 9.451332 9.146772 -6.860918 0
M  V30 69 H 8.634457 8.623336 -8.289500 0
M  V30 70 H 11.211290 6.985244 -3.708702 0
M  V30 71 H 11.222189 5.937740 -5.850831 0
M  V30 72 H 7.512973 2.471956 -20.330124 0
M  V30 73 H 6.517809 1.139452 -21.858939 0
M  V30 74 H 6.536990 1.501036 -23.585715 0
M  V30 75 H 7.765902 2.213489 -22.538078 0
M  V30 76 H 9.014500 7.162454 -5.757176 0
M  V30 77 H 6.100961 5.098324 -14.693726 0
M  V30 END ATOM
M  V30 BEGIN BOND
M  V30 1 1 4 1
M  V30 2 2 5 2
M  V30 3 2 7 6
M  V30 4 1 11 10
M  V30 5 2 12 9
M  V30 6 1 13 7
M  V30 7 1 15 9
M  V30 8 1 17 1
M  V30 9 1 17 9
M  V30 10 1 18 10
M  V30 11 1 19 2
M  V30 12 2 19 15
M  V30 13 1 20 11
M  V30 14 1 22 8
M  V30 15 1 22 13
M  V30 16 1 23 5
M  V30 17 1 24 3
M  V30 18 1 24 18
M  V30 19 1 26 8
M  V30 20 1 26 10
M  V30 21 1 26 16
M  V30 22 1 27 5
M  V30 23 1 28 3
M  V30 24 1 28 4
M  V30 25 1 29 2
M  V30 26 1 29 12
M  V30 27 2 29 14
M  V30 28 1 30 4
M  V30 29 1 30 12
M  V30 30 1 31 8
M  V30 31 1 31 25
M  V30 32 1 32 6
M  V30 33 1 33 22
M  V30 34 2 33 32
M  V30 35 2 34 21
M  V30 36 1 34 23
M  V30 37 1 35 14
M  V30 38 2 35 23
M  V30 39 1 36 34
M  V30 40 1 37 1
M  V30 41 1 38 1
M  V30 42 1 39 3
M  V30 43 1 40 3
M  V30 44 1 41 6
M  V30 45 1 42 7
M  V30 46 1 8 43 CFG=3
M  V30 47 1 44 11
M  V30 48 1 45 11
M  V30 49 1 46 13
M  V30 50 1 47 13
M  V30 51 1 48 14
M  V30 52 1 49 15
M  V30 53 1 50 16
M  V30 54 1 51 16
M  V30 55 1 52 16
M  V30 56 1 53 17
M  V30 57 1 54 17
M  V30 58 1 55 18
M  V30 59 1 56 18
M  V30 60 1 57 20
M  V30 61 1 22 58 CFG=3
M  V30 62 1 59 24
M  V30 63 1 60 24
M  V30 64 1 61 25
M  V30 65 1 62 25
M  V30 66 1 26 63 CFG=3
M  V30 67 1 64 28
M  V30 68 1 65 28
M  V30 69 1 66 30
M  V30 70 1 67 30
M  V30 71 1 68 31
M  V30 72 1 69 31
M  V30 73 1 70 32
M  V30 74 1 71 33
M  V30 75 1 72 35
M  V30 76 1 73 36
M  V30 77 1 74 36
M  V30 78 1 75 36
M  V30 79 1 76 25
M  V30 80 1 4 77 CFG=1
M  V30 END BOND
M  V30 END CTAB
M  END
>  <i_epik_Tot_Q>  (1) 
1

>  <i_epik_Tot_abs_Q>  (1) 
3

>  <i_i_glide_confnum>  (1) 
1086

>  <i_i_glide_lignum>  (1) 
153

>  <i_i_glide_posenum>  (1) 
93

>  <i_i_glide_rotatable_bonds>  (1) 
12

>  <i_lp_mmshare_version>  (1) 
72125

>  <i_m_source_file_index>  (1) 
77

>  <i_f3d_flags>  (1) 
0

>  <num_sample>  (1) 
100

>  <b_lp_Chiralities_Consistent>  (1) 
1

>  <r_epik_Charging_Adjusted_Penalty>  (1) 
0.19513752508682314

>  <r_epik_Ionization_Penalty>  (1) 
0.12765993639139714

>  <r_epik_Ionization_Penalty_Charging>  (1) 
0.058121654325050918

>  <r_epik_Ionization_Penalty_Neutral>  (1) 
0.069538282066346213

>  <r_epik_State_Penalty>  (1) 
0.13701587076177221

>  <r_glide_ring_energy>  (1) 
0.68305203791256774

>  <r_i_docking_score>  (1) 
-7.5524858497272742

>  <r_i_glide_ecoul>  (1) 
-12.659909686837947

>  <r_i_glide_eff_state_penalty>  (1) 
0.13701587076177221

>  <r_i_glide_einternal>  (1) 
21.9589717515017

>  <r_i_glide_emodel>  (1) 
-52.637597722768504

>  <r_i_glide_emodel_strain>  (1) 
2.4926084714093548

>  <r_i_glide_energy>  (1) 
-45.839847359000217

>  <r_i_glide_erotb>  (1) 
0.66875336800380736

>  <r_i_glide_esite>  (1) 
-0.15433565214020453

>  <r_i_glide_evdw>  (1) 
-33.179937672162268

>  <r_i_glide_gscore>  (1) 
-7.6895017204890461

>  <r_i_glide_gscore_strain>  (1) 
0

>  <r_i_glide_hbond>  (1) 
-0.3613400777819199

>  <r_i_glide_ligand_efficiency>  (1) 
-0.20979127360353539

>  <r_i_glide_ligand_efficiency_ln>  (1) 
-1.6477483678230893

>  <r_i_glide_ligand_efficiency_sa>  (1) 
-0.6927155228918217

>  <r_i_glide_lipo>  (1) 
-3.2979978214469372

>  <r_i_glide_metal>  (1) 
-0

>  <r_i_glide_rewards>  (1) 
-0.98659820048998648

>  <r_lp_Energy>  (1) 
66.867964000000001

>  <r_lp_tautomer_probability>  (1) 
0.99995000000000001

>  <s_epik_Chemistry_Notes>  (1) 
This compound contains an acetal/aminal-like group ( X-CH(R)-Y where X, Y are N, S, or O) that may be acid/base labile, releasing an aldehyde.

>  <s_epik_cmdline>  (1) 
J2VwaWtfcHl0aG9uJywgJy1waHQnLCAnMS4wJywgJy1waCcsICc3LjQnLCAnLXRuJywgJzgnLCAnLW1hJywgJzUwMCcsICctaW1hZScsICc8aW5maWxlLm1hZT4nLCAnLW9tYWUnLCAnPG91dGZpbGUubWFlPic=

>  <s_epik_input>  (1) 
Tz1DKFtDSDNdKWMoYzFbT0hdKVtjSF1bY0hdYyhjMTIpYzNjKFtjSF1uMilbQ0gyXVtDSDJdTihbQ0gyXTMpW0NIMl1bQ0gyXVtDSDJdW0NIMl1OKFtDSDJdW09IXSlbQ0BIXShbQ0gzXSlbQ0BASF0oW0NIMl1bTkgyXSlbQ0BIXTRbQ0gyXVtDSF09W0NIXVtDSF09W0NIXTQ=

>  <s_glide_docking_method>  (1) 
confgen

>  <s_i_glide_gridfile>  (1) 
gpcr_drd2_6luq_protein_autoprepared_prepared

>  <s_lp_Force_Field>  (1) 
S-OPLS

>  <s_lp_Variant>  (1) 
DiffSBDD_76_num_sample_100-2

>  <s_m_source_file>  (1) 
generated__ligand_DiffSBDD_2026-05-06_prepared.sdf

>  <GenAI_Model>  (1) 
DiffSBDD

>  <Protein>  (1) 
generic_title2

$$$$
DiffSBDD_83_num_sample_100
     RDKit          3D

  0  0  0  0  0  0  0  0  0  0999 V3000
M  V30 BEGIN CTAB
M  V30 COUNTS 49 53 0 0 1
M  V30 BEGIN ATOM
M  V30 1 C 6.402003 4.653932 -12.616395 0
M  V30 2 C 11.740751 7.832955 -4.248414 0
M  V30 3 C 11.834854 8.629872 -6.536555 0 CFG=1
M  V30 4 C 9.444108 6.028867 -7.652439 0
M  V30 5 C 10.442405 8.060514 -6.610587 0 CFG=2
M  V30 6 N 7.834827 5.369301 -9.678372 0 CHG=1
M  V30 7 C 12.214138 9.779993 -5.630647 0
M  V30 8 C 6.956967 2.539937 -13.697255 0
M  V30 9 C 11.466177 7.448365 -5.681025 0 CFG=2
M  V30 10 C 10.033865 7.208743 -7.746540 0
M  V30 11 C 6.567089 1.376792 -14.596648 0
M  V30 12 C 8.043002 5.830933 -11.100333 0 CFG=1
M  V30 13 C 8.600603 3.651820 -12.280361 0
M  V30 14 C 10.172297 7.501489 -9.074965 0
M  V30 15 C 6.041808 3.584763 -13.449765 0
M  V30 16 C 11.765192 9.369930 -4.218241 0
M  V30 17 C 9.469170 6.472438 -11.248182 0
M  V30 18 C 8.234839 2.575825 -13.109118 0
M  V30 19 C 9.689008 6.500091 -9.790750 0
M  V30 20 C 5.408555 0.529547 -14.047358 0
M  V30 21 O 5.834842 -0.230698 -12.941585 0
M  V30 22 C 9.139883 5.298489 -9.012030 0 CFG=1
M  V30 23 C 7.679909 4.690498 -12.027272 0
M  V30 24 H 5.693184 5.446054 -12.421827 0
M  V30 25 H 11.035113 7.346019 -3.587587 0
M  V30 26 H 12.716599 7.452270 -3.948151 0
M  V30 27 H 12.484015 8.468507 -7.395935 0
M  V30 28 H 9.203588 5.559228 -6.711827 0
M  V30 29 H 9.623640 8.624385 -6.167673 0
M  V30 30 H 7.322494 6.132127 -9.239198 0
M  V30 31 H 11.755134 10.711405 -5.963169 0
M  V30 32 H 13.297674 9.901759 -5.664225 0
M  V30 33 H 11.834836 6.463683 -5.964353 0
M  V30 34 H 7.433295 0.739631 -14.780619 0
M  V30 35 H 6.288512 1.780695 -15.569738 0
M  V30 36 H 7.308809 6.617045 -11.272584 0
M  V30 37 H 9.579926 3.669948 -11.826296 0
M  V30 38 H 10.542868 8.434592 -9.473612 0
M  V30 39 H 5.061089 3.563457 -13.891661 0
M  V30 40 H 10.766413 9.766140 -4.032714 0
M  V30 41 H 12.420527 9.761620 -3.438911 0
M  V30 42 H 10.203629 5.825782 -11.726776 0
M  V30 43 H 9.466697 7.459716 -11.711643 0
M  V30 44 H 8.936866 1.774990 -13.291641 0
M  V30 45 H 5.075536 -0.169404 -14.815645 0
M  V30 46 H 4.542274 1.130192 -13.772471 0
M  V30 47 H 5.516889 -1.133181 -13.082905 0
M  V30 48 H 9.718328 4.393479 -9.202364 0
M  V30 49 H 7.300780 4.514891 -9.619403 0
M  V30 END ATOM
M  V30 BEGIN BOND
M  V30 1 1 5 3
M  V30 2 1 7 3
M  V30 3 1 9 2
M  V30 4 1 9 3
M  V30 5 1 9 5
M  V30 6 2 10 4
M  V30 7 1 10 5
M  V30 8 1 11 8
M  V30 9 1 12 6
M  V30 10 1 14 10
M  V30 11 2 15 1
M  V30 12 1 15 8
M  V30 13 1 16 2
M  V30 14 1 16 7
M  V30 15 1 17 12
M  V30 16 2 18 8
M  V30 17 1 18 13
M  V30 18 2 19 14
M  V30 19 1 19 17
M  V30 20 1 20 11
M  V30 21 1 21 20
M  V30 22 1 22 4
M  V30 23 1 22 6
M  V30 24 1 22 19
M  V30 25 1 23 1
M  V30 26 1 23 12
M  V30 27 2 23 13
M  V30 28 1 24 1
M  V30 29 1 25 2
M  V30 30 1 26 2
M  V30 31 1 3 27 CFG=3
M  V30 32 1 28 4
M  V30 33 1 5 29 CFG=1
M  V30 34 1 30 6
M  V30 35 1 31 7
M  V30 36 1 32 7
M  V30 37 1 9 33 CFG=3
M  V30 38 1 34 11
M  V30 39 1 35 11
M  V30 40 1 12 36 CFG=3
M  V30 41 1 37 13
M  V30 42 1 38 14
M  V30 43 1 39 15
M  V30 44 1 40 16
M  V30 45 1 41 16
M  V30 46 1 42 17
M  V30 47 1 43 17
M  V30 48 1 44 18
M  V30 49 1 45 20
M  V30 50 1 46 20
M  V30 51 1 47 21
M  V30 52 1 22 48 CFG=1
M  V30 53 1 49 6
M  V30 END BOND
M  V30 END CTAB
M  END
>  <i_epik_Tot_Q>  (1) 
1

>  <i_epik_Tot_abs_Q>  (1) 
1

>  <i_i_glide_confnum>  (1) 
331

>  <i_i_glide_lignum>  (1) 
170

>  <i_i_glide_posenum>  (1) 
100

>  <i_i_glide_rotatable_bonds>  (1) 
5

>  <i_lp_mmshare_version>  (1) 
72125

>  <i_m_source_file_index>  (1) 
84

>  <i_f3d_flags>  (1) 
0

>  <num_sample>  (1) 
100

>  <b_lp_Chiralities_Consistent>  (1) 
1

>  <r_epik_Charging_Adjusted_Penalty>  (1) 
0.3591125196210796

>  <r_epik_Ionization_Penalty>  (1) 
0.17955633890062345

>  <r_epik_Ionization_Penalty_Charging>  (1) 
0.1795562598105398

>  <r_epik_Ionization_Penalty_Neutral>  (1) 
7.9090083639956194e-08

>  <r_epik_State_Penalty>  (1) 
0.1795562598105398

>  <r_glide_ring_energy>  (1) 
0

>  <r_i_docking_score>  (1) 
-7.4928324190428022

>  <r_i_glide_ecoul>  (1) 
-9.2666698524006392

>  <r_i_glide_eff_state_penalty>  (1) 
0.1795562598105398

>  <r_i_glide_einternal>  (1) 
4.3350759825085277

>  <r_i_glide_emodel>  (1) 
-54.616827707830709

>  <r_i_glide_emodel_strain>  (1) 
0.84808702031477878

>  <r_i_glide_energy>  (1) 
-37.73352396932215

>  <r_i_glide_erotb>  (1) 
0.54451104441396425

>  <r_i_glide_esite>  (1) 
-0.10000000000000001

>  <r_i_glide_evdw>  (1) 
-28.466854116921514

>  <r_i_glide_gscore>  (1) 
-7.6723886788533422

>  <r_i_glide_gscore_strain>  (1) 
0

>  <r_i_glide_hbond>  (1) 
-0.346995690736836

>  <r_i_glide_ligand_efficiency>  (1) 
-0.32577532256707836

>  <r_i_glide_ligand_efficiency_ln>  (1) 
-1.811834820172596

>  <r_i_glide_ligand_efficiency_sa>  (1) 
-0.92646168269900675

>  <r_i_glide_lipo>  (1) 
-2.2205208715515692

>  <r_i_glide_metal>  (1) 
-0

>  <r_i_glide_rewards>  (1) 
-2.7360399772727284

>  <r_lp_Energy>  (1) 
32.732737999999998

>  <s_epik_cmdline>  (1) 
J2VwaWtfcHl0aG9uJywgJy1waHQnLCAnMS4wJywgJy1waCcsICc3LjQnLCAnLXRuJywgJzgnLCAnLW1hJywgJzUwMCcsICctaW1hZScsICc8aW5maWxlLm1hZT4nLCAnLW9tYWUnLCAnPG91dGZpbGUubWFlPic=

>  <s_epik_input>  (1) 
W09IXVtDSDJdW0NIMl1jMVtjSF1bY0hdYyhbY0hdW2NIXTEpW0NASF0oW0NIMl0yKVtOSF1bQ0BIXShDMjMpW0NIXT1DKFtDSF09MylbQ0BIXTRbQ0BASF0oW0NAQEhdNDUpW0NIMl1bQ0gyXVtDSDJdNQ==

>  <s_glide_docking_method>  (1) 
confgen

>  <s_i_glide_gridfile>  (1) 
gpcr_drd2_6luq_protein_autoprepared_prepared

>  <s_lp_Force_Field>  (1) 
S-OPLS

>  <s_lp_Variant>  (1) 
DiffSBDD_83_num_sample_100-2

>  <s_m_source_file>  (1) 
generated__ligand_DiffSBDD_2026-05-06_prepared.sdf

>  <GenAI_Model>  (1) 
DiffSBDD

>  <Protein>  (1) 
generic_title2

$$$$
DiffSBDD_19_num_sample_100
     RDKit          3D

  0  0  0  0  0  0  0  0  0  0999 V3000
M  V30 BEGIN CTAB
M  V30 COUNTS 54 57 0 0 1
M  V30 BEGIN ATOM
M  V30 1 C 9.016386 5.776196 -10.587190 0
M  V30 2 C 11.804750 9.033764 -9.193297 0
M  V30 3 C 7.161508 6.198117 -14.468005 0 CFG=1
M  V30 4 N 11.098227 7.987693 -7.012858 0
M  V30 5 C 7.383625 5.018815 -12.275921 0 CFG=1
M  V30 6 C 7.598597 2.784153 -13.500530 0
M  V30 7 C 6.397738 5.766302 -13.200851 0 CFG=1
M  V30 8 O 10.822163 6.240287 -5.396490 0
M  V30 9 C 8.265871 4.133266 -13.189828 0 CFG=1
M  V30 10 C 5.702004 6.969310 -12.531662 0
M  V30 11 S 8.513348 5.024932 -14.742956 0
M  V30 12 C 6.258866 6.318270 -15.703864 0
M  V30 13 C 11.740220 6.459863 -3.186320 0
M  V30 14 C 12.348930 7.253282 -2.206232 0
M  V30 15 C 10.714236 8.314802 -8.382680 0 CFG=2
M  V30 16 C 10.185558 6.023474 -7.717237 0
M  V30 17 C 11.434808 8.911080 -6.076506 0
M  V30 18 N 8.085968 6.040412 -11.502276 0
M  V30 19 O 9.434837 4.648243 -10.339181 0
M  V30 20 C 11.434831 7.005421 -4.443471 0
M  V30 21 C 12.635385 8.600130 -2.471398 0
M  V30 22 C 12.335394 9.147468 -3.730724 0
M  V30 23 C 10.470668 6.901347 -8.947523 0 CFG=1
M  V30 24 N 9.434844 6.889514 -9.967937 0
M  V30 25 C 11.169119 6.580219 -6.698931 0 CFG=1
M  V30 26 C 11.744296 8.346779 -4.721236 0
M  V30 27 O 11.491377 10.121373 -6.291616 0
M  V30 28 H 11.604799 8.966268 -10.263061 0
M  V30 29 H 11.834839 10.094217 -8.953838 0
M  V30 30 H 12.794438 8.612185 -9.014412 0
M  V30 31 H 7.637820 7.162530 -14.283845 0
M  V30 32 H 6.834067 4.402766 -11.561883 0
M  V30 33 H 7.418686 2.209671 -12.594948 0
M  V30 34 H 6.640729 2.913516 -14.004523 0
M  V30 35 H 8.231565 2.177506 -14.148739 0
M  V30 36 H 5.627298 5.051720 -13.493837 0
M  V30 37 H 9.242053 3.928954 -12.750762 0
M  V30 38 H 6.390779 7.749078 -12.207098 0
M  V30 39 H 5.034830 7.457492 -13.234844 0
M  V30 40 H 5.119541 6.658344 -11.663110 0
M  V30 41 H 5.474455 7.059921 -15.555106 0
M  V30 42 H 6.831387 6.614682 -16.581986 0
M  V30 43 H 5.777442 5.369296 -15.931139 0
M  V30 44 H 11.508906 5.430516 -2.974311 0
M  V30 45 H 12.596774 6.828170 -1.249176 0
M  V30 46 H 9.785763 8.889444 -8.368769 0
M  V30 47 H 10.371357 4.969179 -7.891673 0
M  V30 48 H 9.165010 6.161132 -7.353437 0
M  V30 49 H 7.796938 6.997558 -11.632083 0
M  V30 50 H 13.094716 9.212327 -1.711984 0
M  V30 51 H 12.569067 10.169301 -3.938928 0
M  V30 52 H 11.400199 6.569299 -9.404820 0
M  V30 53 H 8.999197 7.769479 -10.205479 0
M  V30 54 H 12.188918 6.247122 -6.897286 0
M  V30 END ATOM
M  V30 BEGIN BOND
M  V30 1 1 7 3
M  V30 2 1 7 5
M  V30 3 1 9 5
M  V30 4 1 9 6
M  V30 5 1 10 7
M  V30 6 1 11 3
M  V30 7 1 11 9
M  V30 8 1 12 3
M  V30 9 1 14 13
M  V30 10 1 15 2
M  V30 11 1 15 4
M  V30 12 1 17 4
M  V30 13 1 18 1
M  V30 14 1 18 5
M  V30 15 2 19 1
M  V30 16 1 20 8
M  V30 17 2 20 13
M  V30 18 2 21 14
M  V30 19 1 22 21
M  V30 20 1 23 15
M  V30 21 1 23 16
M  V30 22 1 24 1
M  V30 23 1 24 23
M  V30 24 1 25 4
M  V30 25 1 25 8
M  V30 26 1 25 16
M  V30 27 1 26 17
M  V30 28 1 26 20
M  V30 29 2 26 22
M  V30 30 2 27 17
M  V30 31 1 28 2
M  V30 32 1 29 2
M  V30 33 1 30 2
M  V30 34 1 3 31 CFG=1
M  V30 35 1 5 32 CFG=1
M  V30 36 1 33 6
M  V30 37 1 34 6
M  V30 38 1 35 6
M  V30 39 1 7 36 CFG=3
M  V30 40 1 9 37 CFG=1
M  V30 41 1 38 10
M  V30 42 1 39 10
M  V30 43 1 40 10
M  V30 44 1 41 12
M  V30 45 1 42 12
M  V30 46 1 43 12
M  V30 47 1 44 13
M  V30 48 1 45 14
M  V30 49 1 15 46 CFG=1
M  V30 50 1 47 16
M  V30 51 1 48 16
M  V30 52 1 49 18
M  V30 53 1 50 21
M  V30 54 1 51 22
M  V30 55 1 23 52 CFG=3
M  V30 56 1 53 24
M  V30 57 1 25 54 CFG=3
M  V30 END BOND
M  V30 END CTAB
M  END
>  <i_epik_Tot_Q>  (1) 
0

>  <i_epik_Tot_abs_Q>  (1) 
0

>  <i_i_glide_confnum>  (1) 
30

>  <i_i_glide_lignum>  (1) 
31

>  <i_i_glide_posenum>  (1) 
113

>  <i_i_glide_rotatable_bonds>  (1) 
4

>  <i_lp_mmshare_version>  (1) 
72125

>  <i_m_source_file_index>  (1) 
20

>  <i_f3d_flags>  (1) 
0

>  <num_sample>  (1) 
100

>  <b_lp_Chiralities_Consistent>  (1) 
1

>  <r_epik_Charging_Adjusted_Penalty>  (1) 
0

>  <r_epik_Ionization_Penalty>  (1) 
1.7464855434589993e-05

>  <r_epik_Ionization_Penalty_Charging>  (1) 
0

>  <r_epik_Ionization_Penalty_Neutral>  (1) 
1.7464855434589993e-05

>  <r_epik_State_Penalty>  (1) 
-0

>  <r_glide_ring_energy>  (1) 
0

>  <r_i_docking_score>  (1) 
-7.492105905692009

>  <r_i_glide_ecoul>  (1) 
-1.406470582936588

>  <r_i_glide_eff_state_penalty>  (1) 
-0

>  <r_i_glide_einternal>  (1) 
1.9303173824607485

>  <r_i_glide_emodel>  (1) 
-60.146726459362178

>  <r_i_glide_emodel_strain>  (1) 
0.012082064123760006

>  <r_i_glide_energy>  (1) 
-44.224958118047866

>  <r_i_glide_erotb>  (1) 
0.51395476033457277

>  <r_i_glide_esite>  (1) 
-0.23594680063411433

>  <r_i_glide_evdw>  (1) 
-42.818487535111281

>  <r_i_glide_gscore>  (1) 
-7.492105905692009

>  <r_i_glide_gscore_strain>  (1) 
0

>  <r_i_glide_hbond>  (1) 
-0.020006291025422618

>  <r_i_glide_ligand_efficiency>  (1) 
-0.27748540391451887

>  <r_i_glide_ligand_efficiency_ln>  (1) 
-1.7440387378258648

>  <r_i_glide_ligand_efficiency_sa>  (1) 
-0.83245621174355666

>  <r_i_glide_lipo>  (1) 
-2.8008367688738907

>  <r_i_glide_metal>  (1) 
-0

>  <r_i_glide_rewards>  (1) 
-2.5973758412971009

>  <r_lp_Energy>  (1) 
24.337422

>  <r_lp_tautomer_probability>  (1) 
1

>  <s_epik_Chemistry_Notes>  (1) 
This compound contains an acetal/aminal-like group ( X-CH(R)-Y where X, Y are N, S, or O) that may be acid/base labile, releasing an aldehyde.

>  <s_epik_cmdline>  (1) 
J2VwaWtfcHl0aG9uJywgJy1waHQnLCAnMS4wJywgJy1waCcsICc3LjQnLCAnLXRuJywgJzgnLCAnLW1hJywgJzUwMCcsICctaW1hZScsICc8aW5maWxlLm1hZT4nLCAnLW9tYWUnLCAnPG91dGZpbGUubWFlPic=

>  <s_epik_input>  (1) 
W0NIM11bQ0BIXTFbQ0BIXShbQ0gzXSlbQ0BASF0oW0NASF0oUzEpW0NIM10pW05IXUMoPU8pW05IXVtDQEBIXShbQ0BASF0yW0NIM10pW0NIMl1bQ0BASF0oTjIzKU9jNGMoQzM9TylbY0hdW2NIXVtjSF1bY0hdNA==

>  <s_glide_docking_method>  (1) 
confgen

>  <s_i_glide_gridfile>  (1) 
gpcr_drd2_6luq_protein_autoprepared_prepared

>  <s_lp_Force_Field>  (1) 
S-OPLS

>  <s_lp_Variant>  (1) 
DiffSBDD_19_num_sample_100-1

>  <s_m_source_file>  (1) 
generated__ligand_DiffSBDD_2026-05-06_prepared.sdf

>  <GenAI_Model>  (1) 
DiffSBDD

>  <Protein>  (1) 
generic_title2

$$$$
DiffSBDD_16_num_sample_100
     RDKit          3D

  0  0  0  0  0  0  0  0  0  0999 V3000
M  V30 BEGIN CTAB
M  V30 COUNTS 54 57 0 0 1
M  V30 BEGIN ATOM
M  V30 1 C 7.350660 6.488698 -13.852897 0
M  V30 2 C 10.244534 5.815612 -12.371057 0
M  V30 3 C 11.301977 6.402877 -4.175808 0
M  V30 4 C 11.094770 7.154365 -5.338867 0
M  V30 5 C 10.043694 8.120091 -8.548979 0
M  V30 6 C 6.359826 4.214965 -12.418220 0 CFG=1
M  V30 7 C 9.061051 6.677494 -11.947680 0 CFG=1
M  V30 8 C 11.834868 7.002435 -3.023188 0
M  V30 9 C 11.966146 9.127422 -4.204882 0
M  V30 10 C 11.434990 8.518485 -5.363392 0
M  V30 11 C 9.859860 5.618455 -8.869711 0
M  V30 12 C 12.155927 8.368341 -3.030766 0
M  V30 13 C 6.606882 4.205686 -13.934448 0 CFG=1
M  V30 14 C 11.232477 9.333954 -6.628401 0
M  V30 15 C 11.397463 8.540140 -7.945585 0
M  V30 16 N 12.637920 8.969310 -1.875502 0
M  V30 17 C 9.252444 8.142079 -11.629160 0
M  V30 18 C 10.108267 6.964916 -9.578247 0 CFG=1
M  V30 19 C 5.897694 3.071569 -13.289627 0
M  V30 20 O 7.656640 4.719074 -12.120190 0
M  V30 21 C 7.698623 6.140526 -12.368842 0 CFG=2
M  V30 22 C 6.236351 5.581044 -14.415478 0
M  V30 23 N 9.034867 7.169238 -10.574888 0 CFG=2 CHG=1
M  V30 24 H 7.088961 7.542165 -13.956748 0
M  V30 25 H 8.234428 6.338542 -14.471251 0
M  V30 26 H 10.185515 5.603876 -13.438049 0
M  V30 27 H 11.197016 6.316626 -12.203320 0
M  V30 28 H 10.234862 4.857322 -11.852395 0
M  V30 29 H 11.041087 5.369295 -4.164702 0
M  V30 30 H 10.679967 6.680412 -6.213071 0
M  V30 31 H 9.339719 7.853782 -7.757981 0
M  V30 32 H 9.605527 9.007719 -9.006087 0
M  V30 33 H 5.565080 4.819836 -11.981030 0
M  V30 34 H 11.978013 6.415875 -2.127145 0
M  V30 35 H 12.218633 10.169284 -4.215868 0
M  V30 36 H 10.635038 5.405312 -8.134736 0
M  V30 37 H 8.902092 5.615049 -8.346317 0
M  V30 38 H 9.834891 4.784735 -9.571467 0
M  V30 39 H 7.580098 3.893080 -14.315887 0
M  V30 40 H 10.237663 9.769194 -6.570886 0
M  V30 41 H 11.937077 10.165487 -6.615828 0
M  V30 42 H 11.897437 9.175662 -8.677317 0
M  V30 43 H 12.065700 7.688867 -7.809011 0
M  V30 44 H 12.885342 8.413206 -1.071711 0
M  V30 45 H 13.005895 9.917280 -1.891554 0
M  V30 46 H 8.407385 8.827444 -11.655889 0
M  V30 47 H 10.234930 8.569253 -11.502540 0
M  V30 48 H 11.086030 6.968187 -10.058969 0
M  V30 49 H 6.430555 2.127713 -13.193977 0
M  V30 50 H 4.833093 2.983977 -13.491015 0
M  V30 51 H 6.936251 6.607245 -11.739701 0
M  V30 52 H 6.206333 5.607258 -15.505193 0
M  V30 53 H 5.251702 5.870477 -14.043862 0
M  V30 54 H 8.101633 7.337845 -10.162894 0
M  V30 END ATOM
M  V30 BEGIN BOND
M  V30 1 1 4 3
M  V30 2 1 7 2 CFG=1
M  V30 3 2 8 3
M  V30 4 2 10 4
M  V30 5 1 10 9
M  V30 6 1 12 8
M  V30 7 2 12 9
M  V30 8 1 13 6
M  V30 9 1 14 10
M  V30 10 1 15 5
M  V30 11 1 15 14
M  V30 12 1 16 12
M  V30 13 1 17 7
M  V30 14 1 18 5
M  V30 15 1 18 11
M  V30 16 1 19 6
M  V30 17 1 19 13
M  V30 18 1 20 6
M  V30 19 1 21 1
M  V30 20 1 21 7
M  V30 21 1 21 20
M  V30 22 1 22 1
M  V30 23 1 22 13
M  V30 24 1 23 7
M  V30 25 1 23 17
M  V30 26 1 23 18
M  V30 27 1 24 1
M  V30 28 1 25 1
M  V30 29 1 26 2
M  V30 30 1 27 2
M  V30 31 1 28 2
M  V30 32 1 29 3
M  V30 33 1 30 4
M  V30 34 1 31 5
M  V30 35 1 32 5
M  V30 36 1 6 33 CFG=3
M  V30 37 1 34 8
M  V30 38 1 35 9
M  V30 39 1 36 11
M  V30 40 1 37 11
M  V30 41 1 38 11
M  V30 42 1 13 39 CFG=1
M  V30 43 1 40 14
M  V30 44 1 41 14
M  V30 45 1 42 15
M  V30 46 1 43 15
M  V30 47 1 44 16
M  V30 48 1 45 16
M  V30 49 1 46 17
M  V30 50 1 47 17
M  V30 51 1 18 48 CFG=3
M  V30 52 1 49 19
M  V30 53 1 50 19
M  V30 54 1 21 51 CFG=1
M  V30 55 1 52 22
M  V30 56 1 53 22
M  V30 57 1 23 54 CFG=1
M  V30 END BOND
M  V30 END CTAB
M  END
>  <i_epik_Tot_Q>  (1) 
1

>  <i_epik_Tot_abs_Q>  (1) 
1

>  <i_i_glide_confnum>  (1) 
61

>  <i_i_glide_lignum>  (1) 
27

>  <i_i_glide_posenum>  (1) 
79

>  <i_i_glide_rotatable_bonds>  (1) 
6

>  <i_lp_mmshare_version>  (1) 
72125

>  <i_m_source_file_index>  (1) 
17

>  <i_f3d_flags>  (1) 
0

>  <num_sample>  (1) 
100

>  <b_lp_Chiralities_Consistent>  (1) 
1

>  <r_epik_Charging_Adjusted_Penalty>  (1) 
0.11272327168216571

>  <r_epik_Ionization_Penalty>  (1) 
0.057493963086777844

>  <r_epik_Ionization_Penalty_Charging>  (1) 
0.056361635841082856

>  <r_epik_Ionization_Penalty_Neutral>  (1) 
0.0011323272456949893

>  <r_epik_State_Penalty>  (1) 
0.056361635841082856

>  <r_glide_ring_energy>  (1) 
0

>  <r_i_docking_score>  (1) 
-7.4889695342082971

>  <r_i_glide_ecoul>  (1) 
-9.6221303524039801

>  <r_i_glide_eff_state_penalty>  (1) 
0.056361635841082856

>  <r_i_glide_einternal>  (1) 
11.65656609987168

>  <r_i_glide_emodel>  (1) 
-53.946247031239515

>  <r_i_glide_emodel_strain>  (1) 
0.31979791395075097

>  <r_i_glide_energy>  (1) 
-38.542861364012808

>  <r_i_glide_erotb>  (1) 
1.1214719841998091

>  <r_i_glide_esite>  (1) 
-0.10000000000000001

>  <r_i_glide_evdw>  (1) 
-28.920731011608826

>  <r_i_glide_gscore>  (1) 
-7.5453311700493799

>  <r_i_glide_gscore_strain>  (1) 
0

>  <r_i_glide_hbond>  (1) 
-0.49510205214254166

>  <r_i_glide_ligand_efficiency>  (1) 
-0.32560737105253468

>  <r_i_glide_ligand_efficiency_ln>  (1) 
-1.8109007395929098

>  <r_i_glide_ligand_efficiency_sa>  (1) 
-0.92598405093257985

>  <r_i_glide_lipo>  (1) 
-3.1035333801408336

>  <r_i_glide_metal>  (1) 
-0

>  <r_i_glide_rewards>  (1) 
-2.0788116185247749

>  <r_lp_Energy>  (1) 
55.325258999999996

>  <s_epik_cmdline>  (1) 
J2VwaWtfcHl0aG9uJywgJy1waHQnLCAnMS4wJywgJy1waCcsICc3LjQnLCAnLXRuJywgJzgnLCAnLW1hJywgJzUwMCcsICctaW1hZScsICc8aW5maWxlLm1hZT4nLCAnLW9tYWUnLCAnPG91dGZpbGUubWFlPic=

>  <s_epik_input>  (1) 
W0NIXTEyW0NIXShbQ0gyXTEpW0NIMl1bQ0gyXVtDQEBIXShPMilbQ0BAXTMoW0NIM10pW0NIMl1OM1tDQEhdKFtDSDNdKVtDSDJdW0NIMl1bQ0gyXWM0W2NIXVtjSF1bY0hdYyhbY0hdNClbTkgyXQ==

>  <s_glide_docking_method>  (1) 
confgen

>  <s_i_glide_gridfile>  (1) 
gpcr_drd2_6luq_protein_autoprepared_prepared

>  <s_lp_Force_Field>  (1) 
S-OPLS

>  <s_lp_Variant>  (1) 
DiffSBDD_16_num_sample_100-2

>  <s_m_source_file>  (1) 
generated__ligand_DiffSBDD_2026-05-06_prepared.sdf

>  <GenAI_Model>  (1) 
DiffSBDD

>  <Protein>  (1) 
generic_title2

$$$$
DiffSBDD_40_num_sample_100
     RDKit          3D

  0  0  0  0  0  0  0  0  0  0999 V3000
M  V30 BEGIN CTAB
M  V30 COUNTS 63 67 0 0 1
M  V30 BEGIN ATOM
M  V30 1 F 13.275474 9.369375 -4.718399 0
M  V30 2 C 8.617642 6.228945 -11.328025 0 CFG=2
M  V30 3 O 5.339308 4.169411 -13.056800 0
M  V30 4 C 6.611743 6.203372 -17.946496 0
M  V30 5 C 8.111354 7.358527 -12.225813 0
M  V30 6 C 6.370028 4.450945 -12.447773 0
M  V30 7 C 8.598195 4.762774 -11.804717 0 CFG=1
M  V30 8 C 10.165142 7.136894 -7.976357 0
M  V30 9 C 7.361556 2.716234 -19.099949 0
M  V30 10 F 11.300670 9.769316 -3.962358 0
M  V30 11 O 8.078652 5.020409 -14.175973 0
M  V30 12 C 4.721822 7.369228 -16.780840 0
M  V30 13 F 12.264485 7.888658 -3.516908 0
M  V30 14 O 6.992225 3.744137 -21.274956 0
M  V30 15 C 10.488028 7.193198 -5.559484 0
M  V30 16 N 9.434841 6.588530 -9.088547 0
M  V30 17 N 7.056849 4.804591 -17.743186 0 CFG=1 CHG=1
M  V30 18 C 12.091905 8.821960 -4.454250 0
M  V30 19 C 11.767332 8.704118 -6.983753 0
M  V30 20 C 7.650450 5.227123 -10.686956 0 CFG=2
M  V30 21 C 9.688843 6.786538 -10.407208 0
M  V30 22 C 8.004886 2.714050 -13.306681 0
M  V30 23 C 7.766737 4.211976 -13.031128 0 CFG=2
M  V30 24 O 10.683430 7.369305 -10.837190 0
M  V30 25 C 7.623254 4.204569 -18.969757 0 CFG=2
M  V30 26 C 5.895049 6.721645 -16.707395 0
M  V30 27 C 6.598199 6.471191 -15.381165 0
M  V30 28 C 6.570532 3.699726 -19.930212 0 CFG=2
M  V30 29 C 11.139429 8.163308 -8.127980 0
M  V30 30 C 7.187457 5.050524 -15.289696 0 CFG=1
M  V30 31 C 9.851230 6.660553 -6.691420 0
M  V30 32 C 7.958210 4.689233 -16.569459 0
M  V30 33 N 6.404779 4.970131 -11.255707 0
M  V30 34 C 11.434838 8.223172 -5.696832 0
M  V30 35 H 7.469772 6.840206 -18.163215 0
M  V30 36 H 5.947233 6.264430 -18.809656 0
M  V30 37 H 7.095544 7.178653 -12.568606 0
M  V30 38 H 8.098564 8.311716 -11.694085 0
M  V30 39 H 8.757536 7.460748 -13.091666 0
M  V30 40 H 9.454224 4.156077 -11.513238 0
M  V30 41 H 6.839480 2.209405 -18.290265 0
M  V30 42 H 8.110959 2.114598 -19.611285 0
M  V30 43 H 4.234816 7.740068 -15.891944 0
M  V30 44 H 4.238041 7.543478 -17.731012 0
M  V30 45 H 6.715351 4.560057 -21.664360 0
M  V30 46 H 10.235113 6.819974 -4.579401 0
M  V30 47 H 8.617554 6.043263 -8.856519 0
M  V30 48 H 12.494375 9.492183 -7.091678 0
M  V30 49 H 7.833288 4.780379 -9.711598 0
M  V30 50 H 7.375344 2.071798 -12.691563 0
M  V30 51 H 7.794468 2.455306 -14.343553 0
M  V30 52 H 9.034824 2.433825 -13.091665 0
M  V30 53 H 8.551283 4.640487 -19.337870 0
M  V30 54 H 7.397064 7.202142 -15.268191 0
M  V30 55 H 5.908332 6.645121 -14.554569 0
M  V30 56 H 5.506532 3.847623 -19.750930 0
M  V30 57 H 11.388547 8.556711 -9.094871 0
M  V30 58 H 6.387151 4.318902 -15.205929 0
M  V30 59 H 9.107792 5.885880 -6.572463 0
M  V30 60 H 8.335932 3.669100 -16.491160 0
M  V30 61 H 8.826016 5.339152 -16.696095 0
M  V30 62 H 5.560203 5.185342 -10.744804 0
M  V30 63 H 6.229420 4.267967 -17.525879 0
M  V30 END ATOM
M  V30 BEGIN BOND
M  V30 1 1 2 5 CFG=3
M  V30 2 2 6 3
M  V30 3 1 7 2
M  V30 4 1 16 8
M  V30 5 1 17 4
M  V30 6 1 18 1
M  V30 7 1 18 10
M  V30 8 1 18 13
M  V30 9 1 20 2
M  V30 10 1 20 7
M  V30 11 1 21 2
M  V30 12 1 21 16
M  V30 13 1 23 6
M  V30 14 1 23 7
M  V30 15 1 23 11 CFG=3
M  V30 16 1 23 22
M  V30 17 2 24 21
M  V30 18 1 25 9
M  V30 19 1 25 17
M  V30 20 1 26 4
M  V30 21 2 26 12
M  V30 22 1 27 26
M  V30 23 1 28 9
M  V30 24 1 28 14
M  V30 25 1 28 25
M  V30 26 1 29 8
M  V30 27 2 29 19
M  V30 28 1 30 11
M  V30 29 1 30 27
M  V30 30 2 31 8
M  V30 31 1 31 15
M  V30 32 1 32 17
M  V30 33 1 32 30
M  V30 34 1 33 6
M  V30 35 1 33 20
M  V30 36 2 34 15
M  V30 37 1 34 18
M  V30 38 1 34 19
M  V30 39 1 35 4
M  V30 40 1 36 4
M  V30 41 1 37 5
M  V30 42 1 38 5
M  V30 43 1 39 5
M  V30 44 1 7 40 CFG=1
M  V30 45 1 41 9
M  V30 46 1 42 9
M  V30 47 1 43 12
M  V30 48 1 44 12
M  V30 49 1 45 14
M  V30 50 1 46 15
M  V30 51 1 47 16
M  V30 52 1 48 19
M  V30 53 1 20 49 CFG=1
M  V30 54 1 50 22
M  V30 55 1 51 22
M  V30 56 1 52 22
M  V30 57 1 25 53 CFG=3
M  V30 58 1 54 27
M  V30 59 1 55 27
M  V30 60 1 28 56 CFG=3
M  V30 61 1 57 29
M  V30 62 1 30 58 CFG=1
M  V30 63 1 59 31
M  V30 64 1 60 32
M  V30 65 1 61 32
M  V30 66 1 62 33
M  V30 67 1 17 63 CFG=1
M  V30 END BOND
M  V30 END CTAB
M  END
>  <i_epik_Tot_Q>  (1) 
1

>  <i_epik_Tot_abs_Q>  (1) 
1

>  <i_i_glide_confnum>  (1) 
66

>  <i_i_glide_lignum>  (1) 
70

>  <i_i_glide_posenum>  (1) 
206

>  <i_i_glide_rotatable_bonds>  (1) 
8

>  <i_lp_mmshare_version>  (1) 
72125

>  <i_m_source_file_index>  (1) 
41

>  <i_f3d_flags>  (1) 
0

>  <num_sample>  (1) 
100

>  <b_lp_Chiralities_Consistent>  (1) 
1

>  <r_epik_Charging_Adjusted_Penalty>  (1) 
0.4978346940249993

>  <r_epik_Ionization_Penalty>  (1) 
0.24891983878036394

>  <r_epik_Ionization_Penalty_Charging>  (1) 
0.24891734701249965

>  <r_epik_Ionization_Penalty_Neutral>  (1) 
2.4917678643056738e-06

>  <r_epik_State_Penalty>  (1) 
0.24891734701249965

>  <r_glide_ring_energy>  (1) 
0

>  <r_i_docking_score>  (1) 
-7.398944311141662

>  <r_i_glide_ecoul>  (1) 
-4.244335010580472

>  <r_i_glide_eff_state_penalty>  (1) 
0.24891734701249965

>  <r_i_glide_einternal>  (1) 
3.3754384731573204

>  <r_i_glide_emodel>  (1) 
-70.022943258156744

>  <r_i_glide_emodel_strain>  (1) 
3.4993803588767207

>  <r_i_glide_energy>  (1) 
-50.146246461540521

>  <r_i_glide_erotb>  (1) 
0.52699016033767154

>  <r_i_glide_esite>  (1) 
-0.23490906903698461

>  <r_i_glide_evdw>  (1) 
-45.90191145096005

>  <r_i_glide_gscore>  (1) 
-7.6478616581541612

>  <r_i_glide_gscore_strain>  (1) 
0

>  <r_i_glide_hbond>  (1) 
0

>  <r_i_glide_ligand_efficiency>  (1) 
-0.21761600915122536

>  <r_i_glide_ligand_efficiency_ln>  (1) 
-1.6346343316894973

>  <r_i_glide_ligand_efficiency_sa>  (1) 
-0.70499139139321854

>  <r_i_glide_lipo>  (1) 
-2.8289497948758466

>  <r_i_glide_metal>  (1) 
-0

>  <r_i_glide_rewards>  (1) 
-2.1792471304439269

>  <r_lp_Energy>  (1) 
40.321003999999995

>  <s_epik_cmdline>  (1) 
J2VwaWtfcHl0aG9uJywgJy1waHQnLCAnMS4wJywgJy1waCcsICc3LjQnLCAnLXRuJywgJzgnLCAnLW1hJywgJzUwMCcsICctaW1hZScsICc8aW5maWxlLm1hZT4nLCAnLW9tYWUnLCAnPG91dGZpbGUubWFlPic=

>  <s_epik_input>  (1) 
RkMoRikoRiljKFtjSF1bY0hdMSlbY0hdW2NIXWMxW05IXUMoPU8pW0NAXTIoW0NIM10pW0NASF0oW0NASF0yMylbTkhdQyg9TylbQ0BAXTMoW0NIM10pT1tDQEhdKFtDSDJdNClbQ0gyXUMoPVtDSDJdKVtDSDJdTjRbQ0BIXTVbQ0gyXVtDQEBIXTVbT0hd

>  <s_glide_docking_method>  (1) 
confgen

>  <s_i_glide_gridfile>  (1) 
gpcr_drd2_6luq_protein_autoprepared_prepared

>  <s_lp_Force_Field>  (1) 
S-OPLS

>  <s_lp_Variant>  (1) 
DiffSBDD_40_num_sample_100-1

>  <s_m_source_file>  (1) 
generated__ligand_DiffSBDD_2026-05-06_prepared.sdf

>  <GenAI_Model>  (1) 
DiffSBDD

>  <Protein>  (1) 
generic_title2

$$$$
DiffSBDD_36_num_sample_100
     RDKit          3D

  0  0  0  0  0  0  0  0  0  0999 V3000
M  V30 BEGIN CTAB
M  V30 COUNTS 102 107 0 0 1
M  V30 BEGIN ATOM
M  V30 1 C 10.824038 6.308528 -4.528157 0
M  V30 2 O 6.635098 2.661553 -14.337474 0
M  V30 3 C 9.920153 7.736595 -11.046260 0
M  V30 4 C 13.954281 6.110562 -15.883678 0
M  V30 5 C 8.268212 2.936129 -18.810508 0 CFG=1
M  V30 6 O 11.167825 5.369235 -15.966120 0
M  V30 7 C 9.017380 5.116994 -12.499603 0
M  V30 8 C 10.291940 6.667371 -8.305228 0
M  V30 9 C 9.533502 5.874378 -9.373957 0 CFG=1
M  V30 10 C 11.305506 7.625129 -8.842638 0 CFG=1
M  V30 11 C 7.195406 0.902632 -12.897499 0
M  V30 12 C 7.659702 4.766306 -10.341657 0
M  V30 13 C 11.313858 7.746481 -10.391198 0
M  V30 14 C 10.798596 7.063177 -5.839553 0
M  V30 15 S 8.185534 5.638221 -19.320225 0
M  V30 16 C 11.365569 8.306113 -5.856834 0
M  V30 17 C 5.621334 -0.773962 -16.678994 0
M  V30 18 C 11.434990 9.253681 -6.954377 0
M  V30 19 C 10.774044 5.859222 -18.303737 0
M  V30 20 C 6.440453 1.277307 -14.173187 0 CFG=2
M  V30 21 O 10.406218 2.865749 -17.541623 0
M  V30 22 C 13.112061 0.705537 -19.145872 0
M  V30 23 C 7.479816 4.044097 -19.476760 0
M  V30 24 C 13.125734 6.227121 -17.139634 0
M  V30 25 C 11.025917 1.662736 -17.975563 0
M  V30 26 C 8.277953 5.111405 -8.973750 0
M  V30 27 O 4.254203 -0.931257 -16.291660 0
M  V30 28 C 13.590951 -0.244433 -18.041400 0
M  V30 29 C 8.188127 5.816567 -11.361437 0 CFG=2
M  V30 30 C 7.007118 6.636709 -11.941608 0
M  V30 31 S 13.732712 6.812298 -18.582974 0
M  V30 32 O 7.002577 0.559983 -15.226550 0
M  V30 33 C 12.392095 1.958645 -18.619271 0
M  V30 34 C 7.185734 0.971018 -17.581994 0
M  V30 35 C 6.331095 3.843506 -20.141881 0
M  V30 36 N 9.034807 6.689965 -10.486420 0 CFG=2 CHG=1
M  V30 37 C 7.393845 3.180528 -13.247869 0 CFG=1
M  V30 38 C 9.661596 3.555168 -18.542306 0 CFG=2
M  V30 39 C 11.639126 5.771071 -17.028221 0
M  V30 40 O 4.644625 -0.860331 -17.726048 0
M  V30 41 C 7.550755 2.457702 -17.529720 0
M  V30 42 O 8.197075 4.878559 -14.765486 0
M  V30 43 C 9.470410 5.047732 -18.197485 0 CFG=2
M  V30 44 C 11.374329 8.969277 -8.253749 0
M  V30 45 C 10.111298 6.422066 -6.989349 0
M  V30 46 C 6.249922 0.580449 -16.436316 0 CFG=1
M  V30 47 C 8.244960 1.993708 -12.847839 0
M  V30 48 C 8.202435 4.431966 -13.621029 0
M  V30 49 H 11.601974 5.550341 -4.567686 0
M  V30 50 H 11.055587 6.954302 -3.682703 0
M  V30 51 H 9.868004 5.829324 -4.331976 0
M  V30 52 H 9.416179 8.678312 -10.837624 0
M  V30 53 H 10.004125 7.681979 -12.129872 0
M  V30 54 H 13.862521 5.105702 -15.471642 0
M  V30 55 H 15.008385 6.300235 -16.086264 0
M  V30 56 H 8.375398 2.109514 -19.514789 0
M  V30 57 H 9.703381 4.385069 -12.073620 0
M  V30 58 H 10.234865 5.150076 -9.773171 0
M  V30 59 H 12.249687 7.191240 -8.561762 0
M  V30 60 H 6.503139 0.969609 -12.056650 0
M  V30 61 H 7.591689 -0.110115 -12.949436 0
M  V30 62 H 6.571608 4.728306 -10.284963 0
M  V30 63 H 7.998717 3.773958 -10.618784 0
M  V30 64 H 11.856523 8.640329 -10.691628 0
M  V30 65 H 11.918112 6.969311 -10.831294 0
M  V30 66 H 11.776056 8.649309 -4.918852 0
M  V30 67 H 6.250708 -1.654300 -16.578244 0
M  V30 68 H 11.557516 10.293048 -6.690339 0
M  V30 69 H 11.329143 5.507857 -19.172395 0
M  V30 70 H 10.543750 6.907784 -18.487580 0
M  V30 71 H 5.380652 1.029599 -14.077901 0
M  V30 72 H 12.461436 0.167794 -19.836695 0
M  V30 73 H 13.976747 1.018174 -19.733705 0
M  V30 74 H 11.165546 1.039049 -17.094566 0
M  V30 75 H 10.378022 1.099819 -18.648889 0
M  V30 76 H 7.606567 5.768251 -8.420391 0
M  V30 77 H 8.472446 4.239922 -8.347327 0
M  V30 78 H 14.128132 -1.094246 -18.466553 0
M  V30 79 H 14.262650 0.260114 -17.345656 0
M  V30 80 H 12.749943 -0.637996 -17.471972 0
M  V30 81 H 6.382312 6.054729 -12.618275 0
M  V30 82 H 6.313128 6.969382 -11.172305 0
M  V30 83 H 7.362233 7.511065 -12.487901 0
M  V30 84 H 13.602068 6.826823 -15.140541 0
M  V30 85 H 12.261212 2.644843 -19.454998 0
M  V30 86 H 13.028451 2.478490 -17.902959 0
M  V30 87 H 6.684250 0.767533 -18.529685 0
M  V30 88 H 8.084328 0.352460 -17.563035 0
M  V30 89 H 5.904579 2.854283 -20.231356 0
M  V30 90 H 5.802317 4.665473 -20.601259 0
M  V30 91 H 6.689376 3.429485 -12.454060 0
M  V30 92 H 10.212989 3.523962 -19.483665 0
M  V30 93 H 8.148661 2.649234 -16.638266 0
M  V30 94 H 6.640176 3.039534 -17.377288 0
M  V30 95 H 9.654239 5.836259 -13.009871 0
M  V30 96 H 9.031699 5.131697 -17.203668 0
M  V30 97 H 11.438671 9.785108 -8.956409 0
M  V30 98 H 9.403952 5.648956 -6.739836 0
M  V30 99 H 5.441599 1.308496 -16.401287 0
M  V30 100 H 9.034551 1.773127 -13.561145 0
M  V30 101 H 8.720446 2.169289 -11.891697 0
M  V30 102 H 8.317952 7.242554 -10.006544 0
M  V30 END ATOM
M  V30 BEGIN BOND
M  V30 1 1 9 8
M  V30 2 1 10 8
M  V30 3 1 13 3
M  V30 4 1 13 10
M  V30 5 1 14 1
M  V30 6 2 16 14
M  V30 7 1 18 16
M  V30 8 1 20 2
M  V30 9 1 20 11
M  V30 10 1 23 5
M  V30 11 1 23 15
M  V30 12 1 24 4
M  V30 13 1 25 21
M  V30 14 1 26 9
M  V30 15 1 26 12
M  V30 16 1 27 17
M  V30 17 1 28 22
M  V30 18 1 29 7 CFG=3
M  V30 19 1 29 12
M  V30 20 1 30 29
M  V30 21 2 31 24
M  V30 22 1 32 20
M  V30 23 1 33 22
M  V30 24 1 33 25
M  V30 25 2 35 23
M  V30 26 1 36 3
M  V30 27 1 36 9
M  V30 28 1 36 29
M  V30 29 1 37 2
M  V30 30 1 38 5
M  V30 31 1 38 21
M  V30 32 2 39 6
M  V30 33 1 39 19
M  V30 34 1 39 24
M  V30 35 1 40 17
M  V30 36 1 40 27
M  V30 37 1 41 5
M  V30 38 1 41 34
M  V30 39 1 43 15
M  V30 40 1 43 19
M  V30 41 1 43 38
M  V30 42 1 44 10
M  V30 43 2 44 18
M  V30 44 2 45 8
M  V30 45 1 45 14
M  V30 46 1 46 17
M  V30 47 1 46 32
M  V30 48 1 46 34
M  V30 49 1 47 11
M  V30 50 1 47 37
M  V30 51 1 48 7
M  V30 52 1 48 37
M  V30 53 2 48 42
M  V30 54 1 49 1
M  V30 55 1 50 1
M  V30 56 1 51 1
M  V30 57 1 52 3
M  V30 58 1 53 3
M  V30 59 1 54 4
M  V30 60 1 55 4
M  V30 61 1 5 56 CFG=3
M  V30 62 1 57 7
M  V30 63 1 9 58 CFG=3
M  V30 64 1 10 59 CFG=1
M  V30 65 1 60 11
M  V30 66 1 61 11
M  V30 67 1 62 12
M  V30 68 1 63 12
M  V30 69 1 64 13
M  V30 70 1 65 13
M  V30 71 1 66 16
M  V30 72 1 67 17
M  V30 73 1 68 18
M  V30 74 1 69 19
M  V30 75 1 70 19
M  V30 76 1 20 71 CFG=1
M  V30 77 1 72 22
M  V30 78 1 73 22
M  V30 79 1 74 25
M  V30 80 1 75 25
M  V30 81 1 76 26
M  V30 82 1 77 26
M  V30 83 1 78 28
M  V30 84 1 79 28
M  V30 85 1 80 28
M  V30 86 1 81 30
M  V30 87 1 82 30
M  V30 88 1 83 30
M  V30 89 1 84 4
M  V30 90 1 85 33
M  V30 91 1 86 33
M  V30 92 1 87 34
M  V30 93 1 88 34
M  V30 94 1 89 35
M  V30 95 1 90 35
M  V30 96 1 37 91 CFG=1
M  V30 97 1 38 92 CFG=3
M  V30 98 1 93 41
M  V30 99 1 94 41
M  V30 100 1 95 7
M  V30 101 1 43 96 CFG=1
M  V30 102 1 97 44
M  V30 103 1 98 45
M  V30 104 1 46 99 CFG=1
M  V30 105 1 100 47
M  V30 106 1 101 47
M  V30 107 1 36 102 CFG=1
M  V30 END BOND
M  V30 END CTAB
M  END
>  <i_epik_Tot_Q>  (1) 
1

>  <i_epik_Tot_abs_Q>  (1) 
1

>  <i_i_glide_confnum>  (1) 
7298

>  <i_i_glide_lignum>  (1) 
66

>  <i_i_glide_posenum>  (1) 
28

>  <i_i_glide_rotatable_bonds>  (1) 
16

>  <i_lp_mmshare_version>  (1) 
72125

>  <i_m_source_file_index>  (1) 
37

>  <i_f3d_flags>  (1) 
0

>  <num_sample>  (1) 
100

>  <b_lp_Chiralities_Consistent>  (1) 
1

>  <r_epik_Charging_Adjusted_Penalty>  (1) 
0.91210119875661555

>  <r_epik_Ionization_Penalty>  (1) 
0.45605060116919061

>  <r_epik_Ionization_Penalty_Charging>  (1) 
0.45605059937830777

>  <r_epik_Ionization_Penalty_Neutral>  (1) 
1.7908828364046034e-09

>  <r_epik_State_Penalty>  (1) 
0.45605059937830777

>  <r_glide_ring_energy>  (1) 
0.9081224923352812

>  <r_i_docking_score>  (1) 
-7.3882863734319786

>  <r_i_glide_ecoul>  (1) 
-5.0521557410424354

>  <r_i_glide_eff_state_penalty>  (1) 
0.45605059937830777

>  <r_i_glide_einternal>  (1) 
6.9052993992604357

>  <r_i_glide_emodel>  (1) 
-62.284303208637809

>  <r_i_glide_emodel_strain>  (1) 
0.76306497477159496

>  <r_i_glide_energy>  (1) 
-51.511420030307463

>  <r_i_glide_erotb>  (1) 
0.43548923687221863

>  <r_i_glide_esite>  (1) 
-0.095359232336634459

>  <r_i_glide_evdw>  (1) 
-46.459264289265029

>  <r_i_glide_gscore>  (1) 
-7.8443369728102867

>  <r_i_glide_gscore_strain>  (1) 
0

>  <r_i_glide_hbond>  (1) 
-0.20000000000000001

>  <r_i_glide_ligand_efficiency>  (1) 
-0.1539226327798329

>  <r_i_glide_ligand_efficiency_ln>  (1) 
-1.5167278781737146

>  <r_i_glide_ligand_efficiency_sa>  (1) 
-0.55939197145434738

>  <r_i_glide_lipo>  (1) 
-3.2000673539977087

>  <r_i_glide_metal>  (1) 
-0

>  <r_i_glide_rewards>  (1) 
-1.7036130477285452

>  <r_lp_Energy>  (1) 
33.757401999999999

>  <r_lp_tautomer_probability>  (1) 
0.99994996000200076

>  <s_epik_Chemistry_Notes>  (1) 
This compound contains an acetal/aminal-like group ( X-CH(R)-Y where X, Y are N, S, or O) that may be acid/base labile, releasing an aldehyde.

>  <s_epik_cmdline>  (1) 
J2VwaWtfcHl0aG9uJywgJy1waHQnLCAnMS4wJywgJy1waCcsICc3LjQnLCAnLXRuJywgJzgnLCAnLW1hJywgJzUwMCcsICctaW1hZScsICc8aW5maWxlLm1hZT4nLCAnLW9tYWUnLCAnPG91dGZpbGUubWFlPic=

>  <s_epik_input>  (1) 
W0NIM11DKFtDSF0xKT1bQ0hdW0NIXT1bQ0hdW0NAQEhdMltDSDJdW0NIMl1OKFtDQEhdM0M9MTIpW0NAXShbQ0gzXSkoW0NIMl1bQ0gyXTMpL1tDSF09QyhbT0hdKS9bQ0BIXShbQ0gyXVtDSDJdNClPW0NASF00T1tDQEhdKFtDSF01T081KVtDSDJdW0NIMl1bQ0BIXTZDKD1bQ0gyXSlTW0NASF0oW0NIMl1DKD1PKUMoPVtDSDJdKVtTSF0pW0NASF02T1tDSDJdW0NIMl1bQ0gyXVtDSDNd

>  <s_glide_docking_method>  (1) 
confgen

>  <s_i_glide_gridfile>  (1) 
gpcr_drd2_6luq_protein_autoprepared_prepared

>  <s_lp_Force_Field>  (1) 
S-OPLS

>  <s_lp_Variant>  (1) 
DiffSBDD_36_num_sample_100-3

>  <s_m_source_file>  (1) 
generated__ligand_DiffSBDD_2026-05-06_prepared.sdf

>  <GenAI_Model>  (1) 
DiffSBDD

>  <Protein>  (1) 
generic_title2

$$$$
DiffSBDD_40_num_sample_100
     RDKit          3D

  0  0  0  0  0  0  0  0  0  0999 V3000
M  V30 BEGIN CTAB
M  V30 COUNTS 63 67 0 0 1
M  V30 BEGIN ATOM
M  V30 1 F 13.276142 9.371044 -4.720710 0
M  V30 2 C 8.621513 6.219172 -11.328079 0 CFG=2
M  V30 3 O 5.370835 4.164026 -13.092410 0
M  V30 4 C 6.921511 5.911461 -18.056587 0
M  V30 5 C 8.139576 7.333339 -12.259319 0
M  V30 6 C 6.387951 4.441188 -12.460700 0
M  V30 7 C 8.600908 4.742637 -11.769398 0 CFG=1
M  V30 8 C 10.164267 7.135356 -7.975632 0
M  V30 9 C 8.117015 2.483434 -19.018504 0
M  V30 10 F 11.301727 9.770922 -3.961141 0
M  V30 11 O 8.133364 4.965757 -14.145779 0
M  V30 12 C 4.813626 6.894481 -17.116770 0
M  V30 13 F 12.266047 7.889497 -3.517934 0
M  V30 14 O 7.886086 3.480151 -21.245336 0
M  V30 15 C 10.488237 7.193018 -5.558593 0
M  V30 16 N 9.434764 6.585153 -9.087675 0
M  V30 17 N 7.448798 4.556357 -17.766826 0 CFG=1 CHG=1
M  V30 18 C 12.092566 8.823594 -4.454518 0
M  V30 19 C 11.765749 8.704602 -6.983993 0
M  V30 20 C 7.632377 5.240109 -10.684073 0 CFG=2
M  V30 21 C 9.688981 6.782815 -10.406505 0
M  V30 22 C 8.024553 2.666231 -13.242925 0
M  V30 23 C 7.794523 4.173146 -13.001445 0 CFG=2
M  V30 24 O 10.682270 7.368210 -10.836173 0
M  V30 25 C 8.205166 3.993089 -18.904875 0 CFG=2
M  V30 26 C 6.040165 6.387639 -16.911470 0
M  V30 27 C 6.639962 6.258082 -15.519662 0
M  V30 28 C 7.324153 3.364179 -19.957869 0 CFG=2
M  V30 29 C 11.137518 8.162814 -8.127938 0
M  V30 30 C 7.320829 4.892078 -15.314190 0 CFG=1
M  V30 31 C 9.851179 6.659348 -6.690111 0
M  V30 32 C 8.226936 4.537361 -16.504012 0
M  V30 33 N 6.398336 4.982220 -11.277862 0
M  V30 34 C 11.434759 8.223719 -5.696753 0
M  V30 35 H 7.748860 6.607970 -18.197899 0
M  V30 36 H 6.352017 5.902423 -18.986914 0
M  V30 37 H 7.146404 7.135914 -12.655846 0
M  V30 38 H 8.083657 8.288305 -11.733211 0
M  V30 39 H 8.828180 7.440239 -13.091421 0
M  V30 40 H 9.444250 4.134196 -11.446018 0
M  V30 41 H 7.562218 1.941227 -18.254478 0
M  V30 42 H 8.981264 1.957554 -19.421768 0
M  V30 43 H 4.206619 7.232102 -16.291736 0
M  V30 44 H 4.404407 6.981666 -18.112906 0
M  V30 45 H 7.582726 2.761382 -21.780868 0
M  V30 46 H 10.235246 6.820367 -4.578487 0
M  V30 47 H 8.619080 6.037837 -8.855268 0
M  V30 48 H 12.492018 9.493610 -7.092533 0
M  V30 49 H 7.789234 4.813342 -9.695429 0
M  V30 50 H 7.429662 2.044011 -12.575301 0
M  V30 51 H 7.762192 2.367706 -14.256420 0
M  V30 52 H 9.064932 2.394736 -13.081933 0
M  V30 53 H 9.119622 4.515588 -19.182539 0
M  V30 54 H 7.380150 7.044764 -15.391146 0
M  V30 55 H 5.880165 6.426271 -14.756257 0
M  V30 56 H 6.237632 3.413697 -19.899306 0
M  V30 57 H 11.385506 8.556476 -9.094834 0
M  V30 58 H 6.566433 4.110661 -15.247727 0
M  V30 59 H 9.108253 5.884226 -6.569864 0
M  V30 60 H 8.659671 3.547707 -16.350192 0
M  V30 61 H 9.060156 5.238740 -16.573353 0
M  V30 62 H 5.543517 5.218067 -10.793715 0
M  V30 63 H 6.649502 3.954336 -17.629074 0
M  V30 END ATOM
M  V30 BEGIN BOND
M  V30 1 1 2 5 CFG=3
M  V30 2 2 6 3
M  V30 3 1 7 2
M  V30 4 1 16 8
M  V30 5 1 17 4
M  V30 6 1 18 1
M  V30 7 1 18 10
M  V30 8 1 18 13
M  V30 9 1 20 2
M  V30 10 1 20 7
M  V30 11 1 21 2
M  V30 12 1 21 16
M  V30 13 1 23 6
M  V30 14 1 23 7
M  V30 15 1 23 11 CFG=3
M  V30 16 1 23 22
M  V30 17 2 24 21
M  V30 18 1 25 9
M  V30 19 1 25 17
M  V30 20 1 26 4
M  V30 21 2 26 12
M  V30 22 1 27 26
M  V30 23 1 28 9
M  V30 24 1 28 14
M  V30 25 1 28 25
M  V30 26 1 29 8
M  V30 27 2 29 19
M  V30 28 1 30 11
M  V30 29 1 30 27
M  V30 30 2 31 8
M  V30 31 1 31 15
M  V30 32 1 32 17
M  V30 33 1 32 30
M  V30 34 1 33 6
M  V30 35 1 33 20
M  V30 36 2 34 15
M  V30 37 1 34 18
M  V30 38 1 34 19
M  V30 39 1 35 4
M  V30 40 1 36 4
M  V30 41 1 37 5
M  V30 42 1 38 5
M  V30 43 1 39 5
M  V30 44 1 7 40 CFG=1
M  V30 45 1 41 9
M  V30 46 1 42 9
M  V30 47 1 43 12
M  V30 48 1 44 12
M  V30 49 1 45 14
M  V30 50 1 46 15
M  V30 51 1 47 16
M  V30 52 1 48 19
M  V30 53 1 20 49 CFG=1
M  V30 54 1 50 22
M  V30 55 1 51 22
M  V30 56 1 52 22
M  V30 57 1 25 53 CFG=3
M  V30 58 1 54 27
M  V30 59 1 55 27
M  V30 60 1 28 56 CFG=3
M  V30 61 1 57 29
M  V30 62 1 30 58 CFG=1
M  V30 63 1 59 31
M  V30 64 1 60 32
M  V30 65 1 61 32
M  V30 66 1 62 33
M  V30 67 1 17 63 CFG=1
M  V30 END BOND
M  V30 END CTAB
M  END
>  <i_epik_Tot_Q>  (1) 
1

>  <i_epik_Tot_abs_Q>  (1) 
1

>  <i_i_glide_confnum>  (1) 
66

>  <i_i_glide_lignum>  (1) 
70

>  <i_i_glide_posenum>  (1) 
206

>  <i_i_glide_rotatable_bonds>  (1) 
8

>  <i_lp_mmshare_version>  (1) 
72125

>  <i_m_source_file_index>  (1) 
41

>  <i_f3d_flags>  (1) 
0

>  <num_sample>  (1) 
100

>  <b_lp_Chiralities_Consistent>  (1) 
1

>  <r_epik_Charging_Adjusted_Penalty>  (1) 
0.4978346940249993

>  <r_epik_Ionization_Penalty>  (1) 
0.24891983878036394

>  <r_epik_Ionization_Penalty_Charging>  (1) 
0.24891734701249965

>  <r_epik_Ionization_Penalty_Neutral>  (1) 
2.4917678643056738e-06

>  <r_epik_State_Penalty>  (1) 
0.24891734701249965

>  <r_glide_ring_energy>  (1) 
0

>  <r_i_docking_score>  (1) 
-7.3775579681731953

>  <r_i_glide_ecoul>  (1) 
-4.6733146230611693

>  <r_i_glide_eff_state_penalty>  (1) 
0.24891734701249965

>  <r_i_glide_einternal>  (1) 
3.2577417328807172

>  <r_i_glide_emodel>  (1) 
-70.562573711886628

>  <r_i_glide_emodel_strain>  (1) 
2.5531610060423162

>  <r_i_glide_energy>  (1) 
-49.750897142327652

>  <r_i_glide_erotb>  (1) 
0.52699016033767154

>  <r_i_glide_esite>  (1) 
-0.23477118069649358

>  <r_i_glide_evdw>  (1) 
-45.077582519266485

>  <r_i_glide_gscore>  (1) 
-7.6264753151856945

>  <r_i_glide_gscore_strain>  (1) 
0

>  <r_i_glide_hbond>  (1) 
0

>  <r_i_glide_ligand_efficiency>  (1) 
-0.2169869990639175

>  <r_i_glide_ligand_efficiency_ln>  (1) 
-1.6299094886611616

>  <r_i_glide_ligand_efficiency_sa>  (1) 
-0.70295364289125351

>  <r_i_glide_lipo>  (1) 
-2.7475984993994991

>  <r_i_glide_metal>  (1) 
-0

>  <r_i_glide_rewards>  (1) 
-2.2162194760048748

>  <r_lp_Energy>  (1) 
40.321003999999995

>  <s_epik_cmdline>  (1) 
J2VwaWtfcHl0aG9uJywgJy1waHQnLCAnMS4wJywgJy1waCcsICc3LjQnLCAnLXRuJywgJzgnLCAnLW1hJywgJzUwMCcsICctaW1hZScsICc8aW5maWxlLm1hZT4nLCAnLW9tYWUnLCAnPG91dGZpbGUubWFlPic=

>  <s_epik_input>  (1) 
RkMoRikoRiljKFtjSF1bY0hdMSlbY0hdW2NIXWMxW05IXUMoPU8pW0NAXTIoW0NIM10pW0NASF0oW0NASF0yMylbTkhdQyg9TylbQ0BAXTMoW0NIM10pT1tDQEhdKFtDSDJdNClbQ0gyXUMoPVtDSDJdKVtDSDJdTjRbQ0BIXTVbQ0gyXVtDQEBIXTVbT0hd

>  <s_glide_docking_method>  (1) 
confgen

>  <s_i_glide_gridfile>  (1) 
gpcr_drd2_6luq_protein_autoprepared_prepared

>  <s_lp_Force_Field>  (1) 
S-OPLS

>  <s_lp_Variant>  (1) 
DiffSBDD_40_num_sample_100-1

>  <s_m_source_file>  (1) 
generated__ligand_DiffSBDD_2026-05-06_prepared.sdf

>  <GenAI_Model>  (1) 
DiffSBDD

>  <Protein>  (1) 
generic_title2

$$$$
DiffSBDD_22_num_sample_100
     RDKit          3D

  0  0  0  0  0  0  0  0  0  0999 V3000
M  V30 BEGIN CTAB
M  V30 COUNTS 46 48 0 0 1
M  V30 BEGIN ATOM
M  V30 1 C 6.185571 6.924716 -14.326052 0
M  V30 2 C 5.476314 6.879161 -17.248495 0
M  V30 3 C 7.414208 5.834554 -12.513238 0
M  V30 4 C 11.331432 8.890764 -4.833167 0
M  V30 5 O 9.332328 4.172479 -11.091644 0
M  V30 6 C 6.541825 6.015675 -19.098637 0
M  V30 7 N 6.526632 6.151615 -16.721279 0
M  V30 8 C 8.757695 5.109312 -8.976423 0
M  V30 9 C 7.723866 5.084981 -14.827045 0
M  V30 10 C 8.621001 4.969302 -10.494850 0
M  V30 11 O 4.634856 7.427070 -19.333889 0 CHG=-1
M  V30 12 C 9.190354 8.033993 -6.563892 0
M  V30 13 O 12.538861 9.369289 -6.828637 0
M  V30 14 N 9.034843 6.492934 -8.511877 0 CHG=1
M  V30 15 N 7.699812 5.769304 -11.091667 0
M  V30 16 C 9.007538 6.579897 -7.028420 0
M  V30 17 C 10.523216 8.525494 -8.584923 0
M  V30 18 C 10.284431 7.085639 -9.080722 0
M  V30 19 C 6.494492 6.803074 -12.957083 0
M  V30 20 O 4.635459 7.486004 -16.587671 0
M  V30 21 C 11.488962 8.956099 -6.351924 0
M  V30 22 C 6.799662 6.057729 -15.279101 0
M  V30 23 S 7.545088 5.313679 -17.884162 0
M  V30 24 N 10.444048 8.537598 -7.122621 0
M  V30 25 C 8.030295 4.967743 -13.460213 0
M  V30 26 C 5.511529 6.797371 -18.701254 0
M  V30 27 H 5.498408 7.686923 -14.624490 0
M  V30 28 H 10.634838 9.648979 -4.484604 0
M  V30 29 H 11.035221 7.896906 -4.498168 0
M  V30 30 H 12.288808 9.107729 -4.358655 0
M  V30 31 H 6.766840 5.809776 -20.134404 0
M  V30 32 H 7.832225 4.750764 -8.524588 0
M  V30 33 H 9.552861 4.447778 -8.629228 0
M  V30 34 H 8.200689 4.421324 -15.529515 0
M  V30 35 H 8.372039 8.649936 -6.937477 0
M  V30 36 H 9.110936 8.081656 -5.491667 0
M  V30 37 H 7.176275 6.409699 -10.496646 0
M  V30 38 H 8.073899 6.169324 -6.642741 0
M  V30 39 H 9.802678 5.957845 -6.614430 0
M  V30 40 H 9.744741 9.173527 -8.989192 0
M  V30 41 H 11.469649 8.900366 -8.977657 0
M  V30 42 H 11.130440 6.462120 -8.792664 0
M  V30 43 H 10.254642 7.094956 -10.170629 0
M  V30 44 H 6.027190 7.466370 -12.242890 0
M  V30 45 H 8.730130 4.217371 -13.161172 0
M  V30 46 H 8.257994 7.069624 -8.843383 0
M  V30 END ATOM
M  V30 BEGIN BOND
M  V30 1 1 7 2
M  V30 2 2 10 5
M  V30 3 1 10 8
M  V30 4 1 14 8
M  V30 5 1 15 3
M  V30 6 1 15 10
M  V30 7 1 16 12
M  V30 8 1 16 14
M  V30 9 1 18 14
M  V30 10 1 18 17
M  V30 11 2 19 1
M  V30 12 1 19 3
M  V30 13 2 20 2
M  V30 14 1 21 4
M  V30 15 2 21 13
M  V30 16 1 22 1
M  V30 17 1 22 7
M  V30 18 2 22 9
M  V30 19 1 23 6
M  V30 20 1 23 7
M  V30 21 1 24 12
M  V30 22 1 24 17
M  V30 23 1 24 21
M  V30 24 2 25 3
M  V30 25 1 25 9
M  V30 26 1 26 2
M  V30 27 2 26 6
M  V30 28 1 26 11
M  V30 29 1 27 1
M  V30 30 1 28 4
M  V30 31 1 29 4
M  V30 32 1 30 4
M  V30 33 1 31 6
M  V30 34 1 32 8
M  V30 35 1 33 8
M  V30 36 1 34 9
M  V30 37 1 35 12
M  V30 38 1 36 12
M  V30 39 1 37 15
M  V30 40 1 38 16
M  V30 41 1 39 16
M  V30 42 1 40 17
M  V30 43 1 41 17
M  V30 44 1 42 18
M  V30 45 1 43 18
M  V30 46 1 44 19
M  V30 47 1 45 25
M  V30 48 1 46 14
M  V30 END BOND
M  V30 END CTAB
M  END
>  <i_epik_Tot_Q>  (1) 
0

>  <i_epik_Tot_abs_Q>  (1) 
2

>  <i_i_glide_confnum>  (1) 
63

>  <i_i_glide_lignum>  (1) 
35

>  <i_i_glide_posenum>  (1) 
69

>  <i_i_glide_rotatable_bonds>  (1) 
6

>  <i_lp_mmshare_version>  (1) 
72125

>  <i_m_source_file_index>  (1) 
23

>  <i_f3d_flags>  (1) 
0

>  <num_sample>  (1) 
100

>  <b_lp_Chiralities_Consistent>  (1) 
1

>  <r_epik_Charging_Adjusted_Penalty>  (1) 
0.707433222311869

>  <r_epik_Ionization_Penalty>  (1) 
0.35375602504973802

>  <r_epik_Ionization_Penalty_Charging>  (1) 
0.35374474494757885

>  <r_epik_Ionization_Penalty_Neutral>  (1) 
1.1280102159195983e-05

>  <r_epik_State_Penalty>  (1) 
0.35368847736429015

>  <r_glide_ring_energy>  (1) 
0

>  <r_i_docking_score>  (1) 
-7.3765848098413276

>  <r_i_glide_ecoul>  (1) 
-8.1538404414552144

>  <r_i_glide_eff_state_penalty>  (1) 
0.35368847736429015

>  <r_i_glide_einternal>  (1) 
10.608043593452006

>  <r_i_glide_emodel>  (1) 
-67.986167804773146

>  <r_i_glide_emodel_strain>  (1) 
0.14165534269383784

>  <r_i_glide_energy>  (1) 
-46.960855210062327

>  <r_i_glide_erotb>  (1) 
0.47811857986973644

>  <r_i_glide_esite>  (1) 
-0.19646537356835847

>  <r_i_glide_evdw>  (1) 
-38.807014768607111

>  <r_i_glide_gscore>  (1) 
-7.7302732872056179

>  <r_i_glide_gscore_strain>  (1) 
0

>  <r_i_glide_hbond>  (1) 
-0.35999999999999999

>  <r_i_glide_ligand_efficiency>  (1) 
-0.2837148003785126

>  <r_i_glide_ligand_efficiency_ln>  (1) 
-1.7323667380422632

>  <r_i_glide_ligand_efficiency_sa>  (1) 
-0.84050398067032572

>  <r_i_glide_lipo>  (1) 
-1.5001719584955131

>  <r_i_glide_metal>  (1) 
-0

>  <r_i_glide_rewards>  (1) 
-2.9883277303628453

>  <r_lp_Energy>  (1) 
50.884591999999998

>  <r_lp_tautomer_probability>  (1) 
1

>  <s_epik_cmdline>  (1) 
J2VwaWtfcHl0aG9uJywgJy1waHQnLCAnMS4wJywgJy1waCcsICc3LjQnLCAnLXRuJywgJzgnLCAnLW1hJywgJzUwMCcsICctaW1hZScsICc8aW5maWxlLm1hZT4nLCAnLW9tYWUnLCAnPG91dGZpbGUubWFlPic=

>  <s_epik_input>  (1) 
Tz1DMVtDSDJdU04oQzE9TyljKFtjSF1bY0hdMilbY0hdW2NIXWMyW05IXUMoPU8pW0NIMl1OM1tDSDJdW0NIMl1OKFtDSDJdW0NIMl0zKUMoPU8pW0NIM10=

>  <s_glide_docking_method>  (1) 
confgen

>  <s_i_glide_gridfile>  (1) 
gpcr_drd2_6luq_protein_autoprepared_prepared

>  <s_lp_Force_Field>  (1) 
S-OPLS

>  <s_lp_Variant>  (1) 
DiffSBDD_22_num_sample_100-1

>  <s_m_source_file>  (1) 
generated__ligand_DiffSBDD_2026-05-06_prepared.sdf

>  <GenAI_Model>  (1) 
DiffSBDD

>  <Protein>  (1) 
generic_title2

$$$$
DiffSBDD_55_num_sample_100
     RDKit          3D

  0  0  0  0  0  0  0  0  0  0999 V3000
M  V30 BEGIN CTAB
M  V30 COUNTS 51 54 0 0 1
M  V30 BEGIN ATOM
M  V30 1 O 6.468660 4.550784 -14.129094 0
M  V30 2 C 12.280300 8.967451 -3.890996 0
M  V30 3 C 8.852401 7.399310 -11.759510 0
M  V30 4 C 11.467512 7.845473 -10.122558 0
M  V30 5 C 8.646352 4.657894 -11.019502 0 CFG=2
M  V30 6 C 8.108062 5.084659 -12.388841 0 CFG=1
M  V30 7 S 11.433993 6.569292 -4.904346 0
M  V30 8 C 12.117007 7.491919 -3.498443 0
M  V30 9 C 11.471748 9.213543 -5.158467 0
M  V30 10 C 7.374759 2.512853 -14.644799 0
M  V30 11 N 9.034840 7.088388 -10.319604 0 CFG=2 CHG=1
M  V30 12 C 6.979342 4.129836 -12.868122 0 CFG=2
M  V30 13 C 7.700039 6.579862 -12.352237 0 CFG=2
M  V30 14 C 7.442645 2.681796 -13.135569 0
M  V30 15 C 7.233400 3.940062 -15.151431 0
M  V30 16 C 10.885364 7.977946 -7.248950 0
M  V30 17 C 10.006089 8.003179 -9.640606 0 CFG=1
M  V30 18 C 10.728243 8.011583 -5.740776 0 CFG=1
M  V30 19 C 7.929222 4.969298 -9.720825 0
M  V30 20 O 11.426983 10.322373 -5.687105 0
M  V30 21 O 7.432724 7.107671 -13.637651 0
M  V30 22 C 9.853074 8.014160 -8.119164 0
M  V30 23 C 9.242337 5.650254 -10.032993 0 CFG=1
M  V30 24 H 11.957511 9.631653 -3.087775 0
M  V30 25 H 13.325115 9.194238 -4.108568 0
M  V30 26 H 9.767117 7.201662 -12.317891 0
M  V30 27 H 8.630817 8.462158 -11.862794 0
M  V30 28 H 12.067903 8.709370 -9.832741 0
M  V30 29 H 11.943428 6.969126 -9.691293 0
M  V30 30 H 11.554292 7.767276 -11.203517 0
M  V30 31 H 9.157882 3.697120 -11.040815 0
M  V30 32 H 8.942656 4.993290 -13.085365 0
M  V30 33 H 11.434284 7.395680 -2.652990 0
M  V30 34 H 13.067180 7.050246 -3.199148 0
M  V30 35 H 6.490566 1.933086 -14.908759 0
M  V30 36 H 8.241687 2.001403 -15.059967 0
M  V30 37 H 6.166048 4.139685 -12.141403 0
M  V30 38 H 6.797263 6.718363 -11.753524 0
M  V30 39 H 8.455027 2.499262 -12.778060 0
M  V30 40 H 6.790518 1.955501 -12.648231 0
M  V30 41 H 6.727927 4.004719 -16.115338 0
M  V30 42 H 8.202821 4.431799 -15.234992 0
M  V30 43 H 11.898509 7.929114 -7.617607 0
M  V30 44 H 9.685184 9.003227 -9.913631 0
M  V30 45 H 9.669849 8.093218 -5.492463 0
M  V30 46 H 7.935536 4.220887 -8.933631 0
M  V30 47 H 7.002798 5.535001 -9.779771 0
M  V30 48 H 7.882990 6.588389 -14.285285 0
M  V30 49 H 8.840846 8.060448 -7.741196 0
M  V30 50 H 10.123109 5.394226 -9.447662 0
M  V30 51 H 8.117367 7.344466 -9.900460 0
M  V30 END ATOM
M  V30 BEGIN BOND
M  V30 1 1 6 5
M  V30 2 1 8 2
M  V30 3 1 8 7
M  V30 4 1 9 2
M  V30 5 1 11 3
M  V30 6 1 12 1
M  V30 7 1 12 6
M  V30 8 1 13 3
M  V30 9 1 13 6
M  V30 10 1 14 10
M  V30 11 1 14 12
M  V30 12 1 15 1
M  V30 13 1 15 10
M  V30 14 1 17 4
M  V30 15 1 17 11
M  V30 16 1 18 7
M  V30 17 1 18 9
M  V30 18 1 18 16
M  V30 19 1 19 5
M  V30 20 2 20 9
M  V30 21 1 21 13
M  V30 22 2 22 16
M  V30 23 1 22 17
M  V30 24 1 23 5
M  V30 25 1 23 11
M  V30 26 1 23 19
M  V30 27 1 24 2
M  V30 28 1 25 2
M  V30 29 1 26 3
M  V30 30 1 27 3
M  V30 31 1 28 4
M  V30 32 1 29 4
M  V30 33 1 30 4
M  V30 34 1 5 31 CFG=3
M  V30 35 1 6 32 CFG=3
M  V30 36 1 33 8
M  V30 37 1 34 8
M  V30 38 1 35 10
M  V30 39 1 36 10
M  V30 40 1 12 37 CFG=1
M  V30 41 1 13 38 CFG=1
M  V30 42 1 39 14
M  V30 43 1 40 14
M  V30 44 1 41 15
M  V30 45 1 42 15
M  V30 46 1 43 16
M  V30 47 1 17 44 CFG=3
M  V30 48 1 18 45 CFG=3
M  V30 49 1 46 19
M  V30 50 1 47 19
M  V30 51 1 48 21
M  V30 52 1 49 22
M  V30 53 1 23 50 CFG=1
M  V30 54 1 11 51 CFG=1
M  V30 END BOND
M  V30 END CTAB
M  END
>  <i_epik_Tot_Q>  (1) 
1

>  <i_epik_Tot_abs_Q>  (1) 
1

>  <i_i_glide_confnum>  (1) 
150

>  <i_i_glide_lignum>  (1) 
100

>  <i_i_glide_posenum>  (1) 
310

>  <i_i_glide_rotatable_bonds>  (1) 
5

>  <i_lp_mmshare_version>  (1) 
72125

>  <i_m_source_file_index>  (1) 
56

>  <i_f3d_flags>  (1) 
0

>  <num_sample>  (1) 
100

>  <b_lp_Chiralities_Consistent>  (1) 
1

>  <r_epik_Charging_Adjusted_Penalty>  (1) 
0.1887110856522376

>  <r_epik_Ionization_Penalty>  (1) 
0.094355642401006162

>  <r_epik_Ionization_Penalty_Charging>  (1) 
0.094355542826118813

>  <r_epik_Ionization_Penalty_Neutral>  (1) 
9.9574887353862298e-08

>  <r_epik_State_Penalty>  (1) 
0.094355542826118799

>  <r_glide_ring_energy>  (1) 
1.2361918707854118

>  <r_i_docking_score>  (1) 
-7.3221869737759375

>  <r_i_glide_ecoul>  (1) 
-8.6897446738321662

>  <r_i_glide_eff_state_penalty>  (1) 
0.094355542826118799

>  <r_i_glide_einternal>  (1) 
2.6309830991022372

>  <r_i_glide_emodel>  (1) 
-63.345590082768169

>  <r_i_glide_emodel_strain>  (1) 
1.8550944599847412

>  <r_i_glide_energy>  (1) 
-44.731598940826295

>  <r_i_glide_erotb>  (1) 
0.49519417565235591

>  <r_i_glide_esite>  (1) 
-0.10000000000000001

>  <r_i_glide_evdw>  (1) 
-36.041854266994129

>  <r_i_glide_gscore>  (1) 
-7.416542516602056

>  <r_i_glide_gscore_strain>  (1) 
0

>  <r_i_glide_hbond>  (1) 
-0.12345081446282608

>  <r_i_glide_ligand_efficiency>  (1) 
-0.31835595538156253

>  <r_i_glide_ligand_efficiency_ln>  (1) 
-1.770571204179719

>  <r_i_glide_ligand_efficiency_sa>  (1) 
-0.90536198934872392

>  <r_i_glide_lipo>  (1) 
-2.131545736094326

>  <r_i_glide_metal>  (1) 
-0

>  <r_i_glide_rewards>  (1) 
-2.4511857272727284

>  <r_lp_Energy>  (1) 
19.402072999999998

>  <r_lp_tautomer_probability>  (1) 
0.99995000000000001

>  <s_epik_cmdline>  (1) 
J2VwaWtfcHl0aG9uJywgJy1waHQnLCAnMS4wJywgJy1waCcsICc3LjQnLCAnLXRuJywgJzgnLCAnLW1hJywgJzUwMCcsICctaW1hZScsICc8aW5maWxlLm1hZT4nLCAnLW9tYWUnLCAnPG91dGZpbGUubWFlPic=

>  <s_epik_input>  (1) 
W0NIMl0xW0NIMl1bQ0gyXU9bQ0BASF0xW0NASF0yW0NASF0oW09IXSlbQ0gyXU4oW0NASF0oW0NASF0yMylbQ0gyXTMpW0NASF0oW0NIM10pXFtDSF09W0NIXVxbQ0BIXTRTW0NIMl1bQ0gyXUM0PU8=

>  <s_glide_docking_method>  (1) 
confgen

>  <s_i_glide_gridfile>  (1) 
gpcr_drd2_6luq_protein_autoprepared_prepared

>  <s_lp_Force_Field>  (1) 
S-OPLS

>  <s_lp_Variant>  (1) 
DiffSBDD_55_num_sample_100-1

>  <s_m_source_file>  (1) 
generated__ligand_DiffSBDD_2026-05-06_prepared.sdf

>  <GenAI_Model>  (1) 
DiffSBDD

>  <Protein>  (1) 
generic_title2

$$$$
DiffSBDD_40_num_sample_100
     RDKit          3D

  0  0  0  0  0  0  0  0  0  0999 V3000
M  V30 BEGIN CTAB
M  V30 COUNTS 62 66 0 0 1
M  V30 BEGIN ATOM
M  V30 1 F 13.549581 9.769305 -5.629367 0
M  V30 2 C 8.686281 6.492265 -11.976018 0 CFG=2
M  V30 3 O 5.240368 4.576751 -13.491660 0
M  V30 4 C 6.512621 6.541807 -18.801285 0
M  V30 5 C 7.964277 7.729576 -12.515801 0
M  V30 6 C 6.350108 4.799944 -13.014077 0
M  V30 7 C 8.641621 5.133478 -12.699716 0 CFG=1
M  V30 8 C 10.222174 7.707075 -8.759436 0
M  V30 9 C 6.469555 3.526579 -20.182003 0
M  V30 10 F 11.589964 10.538494 -5.091685 0
M  V30 11 O 7.654283 5.756467 -14.852556 0
M  V30 12 C 4.202886 7.057723 -17.963819 0
M  V30 13 F 12.234951 8.630248 -4.313415 0
M  V30 14 O 6.386490 1.715083 -18.544897 0
M  V30 15 C 10.257678 8.403668 -6.430696 0
M  V30 16 N 9.434839 7.199363 -9.835188 0
M  V30 17 N 7.278412 5.319357 -18.559830 0
M  V30 18 C 12.284993 9.437616 -5.375290 0
M  V30 19 C 12.262967 8.636114 -7.795492 0
M  V30 20 C 7.892841 5.337021 -11.372813 0 CFG=2
M  V30 21 C 9.830060 6.907571 -11.092567 0
M  V30 22 C 7.834879 3.310116 -14.379906 0
M  V30 23 C 7.626677 4.740166 -13.842697 0 CFG=2
M  V30 24 O 10.989321 6.969535 -11.492742 0
M  V30 25 C 6.474877 4.129484 -18.796889 0 CFG=2
M  V30 26 C 5.495467 6.820685 -17.699156 0
M  V30 27 C 6.042607 6.818047 -16.284845 0
M  V30 28 C 7.142458 2.801628 -19.032981 0 CFG=2
M  V30 29 C 11.581209 8.087511 -8.902577 0
M  V30 30 C 6.901318 5.566632 -16.048504 0 CFG=1
M  V30 31 C 9.580192 7.860255 -7.518588 0
M  V30 32 C 7.883238 5.338797 -17.222791 0
M  V30 33 N 6.573578 5.103837 -11.766652 0
M  V30 34 C 11.588792 8.805535 -6.560047 0
M  V30 35 H 7.212818 7.369308 -18.851839 0
M  V30 36 H 6.020105 6.495344 -19.773516 0
M  V30 37 H 6.882466 7.627747 -12.439777 0
M  V30 38 H 8.233224 8.638826 -11.975258 0
M  V30 39 H 8.215499 7.876094 -13.560602 0
M  V30 40 H 9.563338 4.552344 -12.678150 0
M  V30 41 H 7.114393 3.979742 -20.932847 0
M  V30 42 H 5.523832 3.136980 -20.554085 0
M  V30 43 H 3.497768 7.255815 -17.169623 0
M  V30 44 H 3.835097 7.059557 -18.977756 0
M  V30 45 H 5.468691 1.905803 -18.661055 0
M  V30 46 H 9.748520 8.527670 -5.491680 0
M  V30 47 H 8.437799 7.094105 -9.636659 0
M  V30 48 H 13.293588 8.943564 -7.898343 0
M  V30 49 H 8.270707 4.791548 -10.508747 0
M  V30 50 H 8.092450 2.621916 -13.573941 0
M  V30 51 H 6.944766 2.909479 -14.865444 0
M  V30 52 H 8.634845 3.286037 -15.113537 0
M  V30 53 H 5.516912 4.167713 -18.291682 0
M  V30 54 H 6.634836 7.722517 -16.156504 0
M  V30 55 H 5.236991 6.869824 -15.551598 0
M  V30 56 H 8.225632 2.699152 -18.998994 0
M  V30 57 H 12.095499 7.985792 -9.838979 0
M  V30 58 H 6.234843 4.715382 -15.962178 0
M  V30 59 H 8.549851 7.567732 -7.409736 0
M  V30 60 H 8.438739 4.415151 -17.066682 0
M  V30 61 H 8.633100 6.128046 -17.205377 0
M  V30 62 H 5.822860 5.181240 -11.096647 0
M  V30 END ATOM
M  V30 BEGIN BOND
M  V30 1 1 2 5 CFG=3
M  V30 2 2 6 3
M  V30 3 1 7 2
M  V30 4 1 16 8
M  V30 5 1 17 4
M  V30 6 1 18 1
M  V30 7 1 18 10
M  V30 8 1 18 13
M  V30 9 1 20 2
M  V30 10 1 20 7
M  V30 11 1 21 2
M  V30 12 1 21 16
M  V30 13 1 23 6
M  V30 14 1 23 7
M  V30 15 1 23 11 CFG=3
M  V30 16 1 23 22
M  V30 17 2 24 21
M  V30 18 1 25 9
M  V30 19 1 25 17
M  V30 20 1 26 4
M  V30 21 2 26 12
M  V30 22 1 27 26
M  V30 23 1 28 9
M  V30 24 1 28 14
M  V30 25 1 28 25
M  V30 26 1 29 8
M  V30 27 2 29 19
M  V30 28 1 30 11
M  V30 29 1 30 27
M  V30 30 2 31 8
M  V30 31 1 31 15
M  V30 32 1 32 17
M  V30 33 1 32 30
M  V30 34 1 33 6
M  V30 35 1 33 20
M  V30 36 2 34 15
M  V30 37 1 34 18
M  V30 38 1 34 19
M  V30 39 1 35 4
M  V30 40 1 36 4
M  V30 41 1 37 5
M  V30 42 1 38 5
M  V30 43 1 39 5
M  V30 44 1 7 40 CFG=1
M  V30 45 1 41 9
M  V30 46 1 42 9
M  V30 47 1 43 12
M  V30 48 1 44 12
M  V30 49 1 45 14
M  V30 50 1 46 15
M  V30 51 1 47 16
M  V30 52 1 48 19
M  V30 53 1 20 49 CFG=1
M  V30 54 1 50 22
M  V30 55 1 51 22
M  V30 56 1 52 22
M  V30 57 1 25 53 CFG=1
M  V30 58 1 54 27
M  V30 59 1 55 27
M  V30 60 1 28 56 CFG=3
M  V30 61 1 57 29
M  V30 62 1 30 58 CFG=1
M  V30 63 1 59 31
M  V30 64 1 60 32
M  V30 65 1 61 32
M  V30 66 1 62 33
M  V30 END BOND
M  V30 END CTAB
M  END
>  <i_epik_Tot_Q>  (1) 
0

>  <i_epik_Tot_abs_Q>  (1) 
0

>  <i_i_glide_confnum>  (1) 
79

>  <i_i_glide_lignum>  (1) 
72

>  <i_i_glide_posenum>  (1) 
340

>  <i_i_glide_rotatable_bonds>  (1) 
8

>  <i_lp_mmshare_version>  (1) 
72125

>  <i_m_source_file_index>  (1) 
41

>  <i_f3d_flags>  (1) 
0

>  <num_sample>  (1) 
100

>  <b_lp_Chiralities_Consistent>  (1) 
1

>  <r_epik_Charging_Adjusted_Penalty>  (1) 
0.63391490954422869

>  <r_epik_Ionization_Penalty>  (1) 
0.63391730383191769

>  <r_epik_Ionization_Penalty_Charging>  (1) 
0

>  <r_epik_Ionization_Penalty_Neutral>  (1) 
0.63391730383191769

>  <r_epik_State_Penalty>  (1) 
0.63391490954422869

>  <r_glide_ring_energy>  (1) 
0

>  <r_i_docking_score>  (1) 
-7.3166807695080749

>  <r_i_glide_ecoul>  (1) 
-6.1435043036003716

>  <r_i_glide_eff_state_penalty>  (1) 
0.63391490954422869

>  <r_i_glide_einternal>  (1) 
14.710961502322704

>  <r_i_glide_emodel>  (1) 
-61.957011325918685

>  <r_i_glide_emodel_strain>  (1) 
0.44363308664139822

>  <r_i_glide_energy>  (1) 
-48.669315310833085

>  <r_i_glide_erotb>  (1) 
0.52901650880821682

>  <r_i_glide_esite>  (1) 
-0.17995385283368404

>  <r_i_glide_evdw>  (1) 
-42.525811007232711

>  <r_i_glide_gscore>  (1) 
-7.9505956790523031

>  <r_i_glide_gscore_strain>  (1) 
0

>  <r_i_glide_hbond>  (1) 
-0.15154028980725634

>  <r_i_glide_ligand_efficiency>  (1) 
-0.21519649322082574

>  <r_i_glide_ligand_efficiency_ln>  (1) 
-1.6164600079284526

>  <r_i_glide_ligand_efficiency_sa>  (1) 
-0.69715309903171707

>  <r_i_glide_lipo>  (1) 
-2.9297066876342428

>  <r_i_glide_metal>  (1) 
-0

>  <r_i_glide_rewards>  (1) 
-2.1705951616836456

>  <r_lp_Energy>  (1) 
30.893163999999999

>  <s_epik_cmdline>  (1) 
J2VwaWtfcHl0aG9uJywgJy1waHQnLCAnMS4wJywgJy1waCcsICc3LjQnLCAnLXRuJywgJzgnLCAnLW1hJywgJzUwMCcsICctaW1hZScsICc8aW5maWxlLm1hZT4nLCAnLW9tYWUnLCAnPG91dGZpbGUubWFlPic=

>  <s_epik_input>  (1) 
RkMoRikoRiljKFtjSF1bY0hdMSlbY0hdW2NIXWMxW05IXUMoPU8pW0NAXTIoW0NIM10pW0NASF0oW0NASF0yMylbTkhdQyg9TylbQ0BAXTMoW0NIM10pT1tDQEhdKFtDSDJdNClbQ0gyXUMoPVtDSDJdKVtDSDJdTjRbQ0BIXTVbQ0gyXVtDQEBIXTVbT0hd

>  <s_glide_docking_method>  (1) 
confgen

>  <s_i_glide_gridfile>  (1) 
gpcr_drd2_6luq_protein_autoprepared_prepared

>  <s_lp_Force_Field>  (1) 
S-OPLS

>  <s_lp_Variant>  (1) 
DiffSBDD_40_num_sample_100-3

>  <s_m_source_file>  (1) 
generated__ligand_DiffSBDD_2026-05-06_prepared.sdf

>  <GenAI_Model>  (1) 
DiffSBDD

>  <Protein>  (1) 
generic_title2

$$$$
DiffSBDD_40_num_sample_100
     RDKit          3D

  0  0  0  0  0  0  0  0  0  0999 V3000
M  V30 BEGIN CTAB
M  V30 COUNTS 63 67 0 0 1
M  V30 BEGIN ATOM
M  V30 1 F 12.726186 9.696693 -5.887327 0
M  V30 2 C 8.547183 5.742839 -12.343374 0 CFG=2
M  V30 3 O 7.142675 2.962224 -15.242371 0
M  V30 4 C 5.310553 6.623546 -18.820680 0
M  V30 5 C 7.117977 6.276779 -12.349348 0
M  V30 6 C 7.834839 3.653287 -14.498276 0
M  V30 7 C 9.234599 5.273184 -13.620083 0 CFG=1
M  V30 8 C 9.875725 6.988586 -9.006898 0
M  V30 9 C 6.067995 3.168847 -20.019030 0
M  V30 10 F 10.726682 9.972817 -5.145635 0
M  V30 11 O 7.652233 5.973010 -15.350944 0
M  V30 12 C 3.511588 7.369302 -17.261574 0
M  V30 13 F 11.834838 8.209664 -4.584486 0
M  V30 14 O 5.187389 4.169305 -22.086504 0
M  V30 15 C 9.996317 7.361328 -6.591778 0
M  V30 16 N 9.232777 6.301659 -10.114196 0
M  V30 17 N 5.906395 5.281061 -18.664123 0 CFG=1 CHG=1
M  V30 18 C 11.593463 9.062037 -5.580520 0
M  V30 19 C 11.468109 8.609756 -8.083360 0
M  V30 20 C 8.875632 4.267659 -12.504592 0 CFG=2
M  V30 21 C 9.424233 6.553183 -11.436669 0
M  V30 22 C 9.606568 4.654890 -16.080378 0
M  V30 23 C 8.550361 4.914330 -14.980998 0 CFG=2
M  V30 24 O 10.231638 7.366648 -11.875123 0
M  V30 25 C 6.262152 4.671898 -19.963835 0 CFG=2
M  V30 26 C 4.797583 7.060189 -17.468987 0
M  V30 27 C 5.834843 7.113278 -16.365072 0
M  V30 28 C 5.068601 4.086583 -20.684906 0 CFG=2
M  V30 29 C 10.910958 7.950824 -9.196042 0
M  V30 30 C 6.579171 5.769300 -16.275957 0 CFG=1
M  V30 31 C 9.434844 6.695104 -7.698710 0
M  V30 32 C 7.027481 5.286430 -17.687034 0
M  V30 33 N 8.046054 3.399966 -13.231062 0
M  V30 34 C 11.007283 8.324294 -6.781301 0
M  V30 35 H 6.053530 7.334972 -19.184646 0
M  V30 36 H 4.497668 6.601941 -19.547383 0
M  V30 37 H 6.472798 5.691244 -13.002352 0
M  V30 38 H 6.689951 6.240028 -11.346688 0
M  V30 39 H 7.100543 7.311123 -12.695375 0
M  V30 40 H 10.283659 5.541707 -13.718296 0
M  V30 41 H 5.749028 2.656969 -19.112269 0
M  V30 42 H 6.739026 2.596600 -20.657044 0
M  V30 43 H 3.162402 7.682167 -16.291669 0
M  V30 44 H 2.792214 7.322128 -18.064006 0
M  V30 45 H 5.970898 3.716714 -22.362327 0
M  V30 46 H 9.643184 7.139585 -5.595552 0
M  V30 47 H 8.529096 5.620809 -9.870025 0
M  V30 48 H 12.243574 9.344691 -8.231813 0
M  V30 49 H 9.707041 3.836256 -11.948883 0
M  V30 50 H 10.562300 4.347795 -15.657245 0
M  V30 51 H 9.319267 3.865452 -16.772687 0
M  V30 52 H 9.804470 5.561056 -16.653055 0
M  V30 53 H 7.067677 5.152054 -20.518202 0
M  V30 54 H 6.536907 7.914996 -16.593792 0
M  V30 55 H 5.377289 7.361465 -15.406137 0
M  V30 56 H 4.061082 4.205721 -20.291673 0
M  V30 57 H 11.277085 8.195653 -10.169910 0
M  V30 58 H 5.874943 5.056820 -15.851389 0
M  V30 59 H 8.649760 5.968706 -7.545249 0
M  V30 60 H 7.396298 4.264987 -17.629249 0
M  V30 61 H 7.836341 5.912770 -18.066265 0
M  V30 62 H 7.637367 2.594748 -12.779712 0
M  V30 63 H 5.184804 4.694935 -18.268872 0
M  V30 END ATOM
M  V30 BEGIN BOND
M  V30 1 1 2 5 CFG=3
M  V30 2 2 6 3
M  V30 3 1 7 2
M  V30 4 1 16 8
M  V30 5 1 17 4
M  V30 6 1 18 1
M  V30 7 1 18 10
M  V30 8 1 18 13
M  V30 9 1 20 2
M  V30 10 1 20 7
M  V30 11 1 21 2
M  V30 12 1 21 16
M  V30 13 1 23 6
M  V30 14 1 23 7
M  V30 15 1 23 11 CFG=3
M  V30 16 1 23 22
M  V30 17 2 24 21
M  V30 18 1 25 9
M  V30 19 1 25 17
M  V30 20 1 26 4
M  V30 21 2 26 12
M  V30 22 1 27 26
M  V30 23 1 28 9
M  V30 24 1 28 14
M  V30 25 1 28 25
M  V30 26 1 29 8
M  V30 27 2 29 19
M  V30 28 1 30 11
M  V30 29 1 30 27
M  V30 30 2 31 8
M  V30 31 1 31 15
M  V30 32 1 32 17
M  V30 33 1 32 30
M  V30 34 1 33 6
M  V30 35 1 33 20
M  V30 36 2 34 15
M  V30 37 1 34 18
M  V30 38 1 34 19
M  V30 39 1 35 4
M  V30 40 1 36 4
M  V30 41 1 37 5
M  V30 42 1 38 5
M  V30 43 1 39 5
M  V30 44 1 7 40 CFG=3
M  V30 45 1 41 9
M  V30 46 1 42 9
M  V30 47 1 43 12
M  V30 48 1 44 12
M  V30 49 1 45 14
M  V30 50 1 46 15
M  V30 51 1 47 16
M  V30 52 1 48 19
M  V30 53 1 20 49 CFG=1
M  V30 54 1 50 22
M  V30 55 1 51 22
M  V30 56 1 52 22
M  V30 57 1 25 53 CFG=3
M  V30 58 1 54 27
M  V30 59 1 55 27
M  V30 60 1 28 56 CFG=1
M  V30 61 1 57 29
M  V30 62 1 30 58 CFG=1
M  V30 63 1 59 31
M  V30 64 1 60 32
M  V30 65 1 61 32
M  V30 66 1 62 33
M  V30 67 1 17 63 CFG=1
M  V30 END BOND
M  V30 END CTAB
M  END
>  <i_epik_Tot_Q>  (1) 
1

>  <i_epik_Tot_abs_Q>  (1) 
1

>  <i_i_glide_confnum>  (1) 
66

>  <i_i_glide_lignum>  (1) 
70

>  <i_i_glide_posenum>  (1) 
284

>  <i_i_glide_rotatable_bonds>  (1) 
8

>  <i_lp_mmshare_version>  (1) 
72125

>  <i_m_source_file_index>  (1) 
41

>  <i_f3d_flags>  (1) 
0

>  <num_sample>  (1) 
100

>  <b_lp_Chiralities_Consistent>  (1) 
1

>  <r_epik_Charging_Adjusted_Penalty>  (1) 
0.4978346940249993

>  <r_epik_Ionization_Penalty>  (1) 
0.24891983878036394

>  <r_epik_Ionization_Penalty_Charging>  (1) 
0.24891734701249965

>  <r_epik_Ionization_Penalty_Neutral>  (1) 
2.4917678643056738e-06

>  <r_epik_State_Penalty>  (1) 
0.24891734701249965

>  <r_glide_ring_energy>  (1) 
0

>  <r_i_docking_score>  (1) 
-7.2894799896090152

>  <r_i_glide_ecoul>  (1) 
-4.0172319740145142

>  <r_i_glide_eff_state_penalty>  (1) 
0.24891734701249965

>  <r_i_glide_einternal>  (1) 
7.246445484396336

>  <r_i_glide_emodel>  (1) 
-70.212671655927068

>  <r_i_glide_emodel_strain>  (1) 
0.46688217368587459

>  <r_i_glide_energy>  (1) 
-49.597719862767811

>  <r_i_glide_erotb>  (1) 
0.52699016033767154

>  <r_i_glide_esite>  (1) 
-0.13246503765877546

>  <r_i_glide_evdw>  (1) 
-45.580487888753296

>  <r_i_glide_gscore>  (1) 
-7.5383973366215145

>  <r_i_glide_gscore_strain>  (1) 
0

>  <r_i_glide_hbond>  (1) 
0

>  <r_i_glide_ligand_efficiency>  (1) 
-0.2143964702826181

>  <r_i_glide_ligand_efficiency_ln>  (1) 
-1.6104505926927171

>  <r_i_glide_ligand_efficiency_sa>  (1) 
-0.6945613352798069

>  <r_i_glide_lipo>  (1) 
-2.9832204607600437

>  <r_i_glide_metal>  (1) 
-0

>  <r_i_glide_rewards>  (1) 
-2.0680928080005243

>  <r_lp_Energy>  (1) 
40.321003999999995

>  <s_epik_cmdline>  (1) 
J2VwaWtfcHl0aG9uJywgJy1waHQnLCAnMS4wJywgJy1waCcsICc3LjQnLCAnLXRuJywgJzgnLCAnLW1hJywgJzUwMCcsICctaW1hZScsICc8aW5maWxlLm1hZT4nLCAnLW9tYWUnLCAnPG91dGZpbGUubWFlPic=

>  <s_epik_input>  (1) 
RkMoRikoRiljKFtjSF1bY0hdMSlbY0hdW2NIXWMxW05IXUMoPU8pW0NAXTIoW0NIM10pW0NASF0oW0NASF0yMylbTkhdQyg9TylbQ0BAXTMoW0NIM10pT1tDQEhdKFtDSDJdNClbQ0gyXUMoPVtDSDJdKVtDSDJdTjRbQ0BIXTVbQ0gyXVtDQEBIXTVbT0hd

>  <s_glide_docking_method>  (1) 
confgen

>  <s_i_glide_gridfile>  (1) 
gpcr_drd2_6luq_protein_autoprepared_prepared

>  <s_lp_Force_Field>  (1) 
S-OPLS

>  <s_lp_Variant>  (1) 
DiffSBDD_40_num_sample_100-1

>  <s_m_source_file>  (1) 
generated__ligand_DiffSBDD_2026-05-06_prepared.sdf

>  <GenAI_Model>  (1) 
DiffSBDD

>  <Protein>  (1) 
generic_title2

$$$$
DiffSBDD_90_num_sample_100
     RDKit          3D

  0  0  0  0  0  0  0  0  0  0999 V3000
M  V30 BEGIN CTAB
M  V30 COUNTS 61 65 0 0 1
M  V30 BEGIN ATOM
M  V30 1 C 8.002829 5.696543 -20.882688 0
M  V30 2 C 7.701968 5.433900 -17.661886 0
M  V30 3 C 9.617776 7.295438 -6.628939 0
M  V30 4 S 7.583149 6.299668 -22.463106 0
M  V30 5 C 6.231032 6.383396 -15.927933 0
M  V30 6 C 5.919644 6.968857 -18.261376 0
M  V30 7 C 5.514980 7.099499 -16.926695 0
M  V30 8 C 9.471031 6.032291 -7.496742 0
M  V30 9 C 11.445003 8.381887 -8.099687 0
M  V30 10 C 11.220478 9.041227 -5.662569 0
M  V30 11 N 9.034847 6.244275 -8.905513 0 CFG=1 CHG=1
M  V30 12 C 9.937498 7.088099 -9.737341 0
M  V30 13 C 6.799187 5.584471 -11.015644 0
M  V30 14 C 7.673676 4.974506 -13.954582 0
M  V30 15 C 6.972719 6.165716 -18.601669 0
M  V30 16 C 8.742802 4.914863 -9.518471 0
M  V30 17 C 6.273220 7.251251 -21.786985 0
M  V30 18 C 5.243083 7.713858 -19.484556 0
M  V30 19 C 5.864391 6.500272 -14.575385 0
M  V30 20 C 10.315865 8.446199 -9.137718 0
M  V30 21 N 6.232973 7.066588 -20.455757 0 CHG=1
M  V30 22 C 5.326715 8.140155 -22.524006 0
M  V30 23 C 11.029475 7.915447 -6.692130 0 CFG=1
M  V30 24 C 8.037644 4.849681 -15.309862 0
M  V30 25 C 7.329594 5.547906 -16.298092 0
M  V30 26 C 6.144787 5.979983 -12.141676 0
M  V30 27 C 8.155177 4.909695 -10.944628 0
M  V30 28 C 6.580984 5.807711 -13.570869 0
M  V30 29 C 7.165022 6.224436 -19.944727 0
M  V30 30 H 8.824785 5.008258 -20.750916 0
M  V30 31 H 8.530810 4.809601 -17.963123 0
M  V30 32 H 9.444179 6.992956 -5.595821 0
M  V30 33 H 8.829393 8.019078 -6.841293 0
M  V30 34 H 4.684206 7.737591 -16.662214 0
M  V30 35 H 8.703716 5.420399 -7.024832 0
M  V30 36 H 10.389514 5.443078 -7.474805 0
M  V30 37 H 12.240974 7.737517 -8.474854 0
M  V30 38 H 11.902035 9.369403 -8.035758 0
M  V30 39 H 10.613454 9.913611 -5.898565 0
M  V30 40 H 10.965417 8.708910 -4.658427 0
M  V30 41 H 12.260225 9.369566 -5.634107 0
M  V30 42 H 10.851537 6.569306 -9.999508 0
M  V30 43 H 9.421557 7.299851 -10.673351 0
M  V30 44 H 6.326682 5.769311 -10.061473 0
M  V30 45 H 8.221751 4.419019 -13.232343 0
M  V30 46 H 8.029228 4.398525 -8.874475 0
M  V30 47 H 9.656109 4.317265 -9.513827 0
M  V30 48 H 4.234245 7.377862 -19.697840 0
M  V30 49 H 5.358129 8.798296 -19.474817 0
M  V30 50 H 5.034839 7.134356 -14.299231 0
M  V30 51 H 10.713196 9.036549 -9.955210 0
M  V30 52 H 9.436917 8.980653 -8.779093 0
M  V30 53 H 5.479224 9.166469 -22.189295 0
M  V30 54 H 5.530223 8.062737 -23.592532 0
M  V30 55 H 11.728341 7.129570 -6.401570 0
M  V30 56 H 8.865904 4.214221 -15.586586 0
M  V30 57 H 5.194967 6.478608 -12.010684 0
M  V30 58 H 8.043130 3.868166 -11.245951 0
M  V30 59 H 8.870068 5.398714 -11.603304 0
M  V30 60 H 4.305915 7.819023 -22.314229 0
M  V30 61 H 8.148117 6.758027 -8.884616 0
M  V30 END ATOM
M  V30 BEGIN BOND
M  V30 1 1 4 1
M  V30 2 2 7 5
M  V30 3 1 7 6
M  V30 4 1 8 3
M  V30 5 1 11 8
M  V30 6 1 12 11
M  V30 7 1 15 2
M  V30 8 2 15 6
M  V30 9 1 16 11
M  V30 10 1 17 4
M  V30 11 1 18 6
M  V30 12 1 19 5
M  V30 13 1 20 9
M  V30 14 1 20 12
M  V30 15 2 21 17
M  V30 16 1 21 18
M  V30 17 1 22 17
M  V30 18 1 23 3
M  V30 19 1 23 9
M  V30 20 1 23 10
M  V30 21 2 24 14
M  V30 22 2 25 2
M  V30 23 1 25 5
M  V30 24 1 25 24
M  V30 25 2 26 13
M  V30 26 1 27 13
M  V30 27 1 27 16
M  V30 28 1 28 14
M  V30 29 2 28 19
M  V30 30 1 28 26
M  V30 31 2 29 1
M  V30 32 1 29 15
M  V30 33 1 29 21
M  V30 34 1 30 1
M  V30 35 1 31 2
M  V30 36 1 32 3
M  V30 37 1 33 3
M  V30 38 1 34 7
M  V30 39 1 35 8
M  V30 40 1 36 8
M  V30 41 1 37 9
M  V30 42 1 38 9
M  V30 43 1 39 10
M  V30 44 1 40 10
M  V30 45 1 41 10
M  V30 46 1 42 12
M  V30 47 1 43 12
M  V30 48 1 44 13
M  V30 49 1 45 14
M  V30 50 1 46 16
M  V30 51 1 47 16
M  V30 52 1 48 18
M  V30 53 1 49 18
M  V30 54 1 50 19
M  V30 55 1 51 20
M  V30 56 1 52 20
M  V30 57 1 53 22
M  V30 58 1 54 22
M  V30 59 1 23 55 CFG=1
M  V30 60 1 56 24
M  V30 61 1 57 26
M  V30 62 1 58 27
M  V30 63 1 59 27
M  V30 64 1 60 22
M  V30 65 1 11 61 CFG=1
M  V30 END BOND
M  V30 END CTAB
M  END
>  <i_epik_Tot_Q>  (1) 
2

>  <i_epik_Tot_abs_Q>  (1) 
2

>  <i_i_glide_confnum>  (1) 
144

>  <i_i_glide_lignum>  (1) 
184

>  <i_i_glide_posenum>  (1) 
390

>  <i_i_glide_rotatable_bonds>  (1) 
4

>  <i_lp_mmshare_version>  (1) 
72125

>  <i_m_source_file_index>  (1) 
91

>  <i_f3d_flags>  (1) 
0

>  <num_sample>  (1) 
100

>  <b_lp_Chiralities_Consistent>  (1) 
1

>  <r_epik_Charging_Adjusted_Penalty>  (1) 
0.0021252633397680827

>  <r_epik_Ionization_Penalty>  (1) 
0.002125263340211697

>  <r_epik_Ionization_Penalty_Charging>  (1) 
0.0021252633397680827

>  <r_epik_Ionization_Penalty_Neutral>  (1) 
4.4361447992621368e-13

>  <r_epik_State_Penalty>  (1) 
-0

>  <r_glide_ring_energy>  (1) 
0.44791120233511678

>  <r_i_docking_score>  (1) 
-7.266347991876283

>  <r_i_glide_ecoul>  (1) 
-5.4378750892623993

>  <r_i_glide_eff_state_penalty>  (1) 
-0

>  <r_i_glide_einternal>  (1) 
7.0192476475542778

>  <r_i_glide_emodel>  (1) 
-57.058655993171911

>  <r_i_glide_emodel_strain>  (1) 
0

>  <r_i_glide_energy>  (1) 
-38.701980550175215

>  <r_i_glide_erotb>  (1) 
0.33597563637362399

>  <r_i_glide_esite>  (1) 
-0.097724390104031611

>  <r_i_glide_evdw>  (1) 
-33.264105460912816

>  <r_i_glide_gscore>  (1) 
-7.266347991876283

>  <r_i_glide_gscore_strain>  (1) 
0

>  <r_i_glide_hbond>  (1) 
-0.20000000000000001

>  <r_i_glide_ligand_efficiency>  (1) 
-0.25056372385780284

>  <r_i_glide_ligand_efficiency_ln>  (1) 
-1.6638094314528693

>  <r_i_glide_ligand_efficiency_sa>  (1) 
-0.76981114471483025

>  <r_i_glide_lipo>  (1) 
-2.6128522842043727

>  <r_i_glide_metal>  (1) 
-0

>  <r_i_glide_rewards>  (1) 
-2.2128604175065014

>  <r_lp_Energy>  (1) 
49.647815999999999

>  <r_lp_tautomer_probability>  (1) 
1

>  <s_epik_cmdline>  (1) 
J2VwaWtfcHl0aG9uJywgJy1waHQnLCAnMS4wJywgJy1waCcsICc3LjQnLCAnLXRuJywgJzgnLCAnLW1hJywgJzUwMCcsICctaW1hZScsICc8aW5maWxlLm1hZT4nLCAnLW9tYWUnLCAnPG91dGZpbGUubWFlPic=

>  <s_epik_input>  (1) 
W0NIMl09QzFTW0NIXT1DMk4xW0NIMl1jKFtjSF0zKWMyW2NIXWMoYzM0KVtjSF1bY0hdYyhbY0hdNCkvW0NIXT1bQ0hdXFtDSDJdW0NIMl1ONVtDSDJdW0NIMl1bQ0BIXShbQ0gzXSlbQ0gyXVtDSDJdW0NIMl01

>  <s_glide_docking_method>  (1) 
confgen

>  <s_i_glide_gridfile>  (1) 
gpcr_drd2_6luq_protein_autoprepared_prepared

>  <s_lp_Force_Field>  (1) 
S-OPLS

>  <s_lp_Variant>  (1) 
DiffSBDD_90_num_sample_100-4

>  <s_m_source_file>  (1) 
generated__ligand_DiffSBDD_2026-05-06_prepared.sdf

>  <GenAI_Model>  (1) 
DiffSBDD

>  <Protein>  (1) 
generic_title2

$$$$
DiffSBDD_35_num_sample_100
     RDKit          3D

  0  0  0  0  0  0  0  0  0  0999 V3000
M  V30 BEGIN CTAB
M  V30 COUNTS 57 63 0 0 1
M  V30 BEGIN ATOM
M  V30 1 C 11.352057 8.181852 -8.584457 0
M  V30 2 C 6.379213 6.650457 -15.471291 0
M  V30 3 N 7.685125 4.295877 -11.732946 0
M  V30 4 C 7.435176 3.112208 -16.002801 0
M  V30 5 C 7.086686 4.237940 -18.152810 0
M  V30 6 S 7.834878 1.566535 -15.324444 0
M  V30 7 C 10.019100 6.703148 -10.163313 0
M  V30 8 C 8.323437 -0.068646 -19.309421 0
M  V30 9 C 10.064335 7.065028 -6.337299 0
M  V30 10 C 10.377631 7.178906 -8.761021 0
M  V30 11 C 6.750635 5.447038 -16.137099 0
M  V30 12 C 5.491857 5.335341 -11.168711 0
M  V30 13 C 7.128108 4.457666 -13.927205 0
M  V30 14 N 6.752425 5.369064 -17.477188 0
M  V30 15 C 7.821182 1.673051 -17.930643 0
M  V30 16 C 8.071464 0.789334 -16.834277 0
M  V30 17 C 7.111532 4.328490 -15.347866 0
M  V30 18 N 8.589838 -0.966957 -18.351747 0
M  V30 19 C 8.452020 -0.525794 -17.092361 0
M  V30 20 C 7.434834 3.041131 -17.450117 0
M  V30 21 C 6.838549 5.550860 -11.855521 0 CFG=2
M  V30 22 C 11.034895 8.068072 -6.166819 0
M  V30 23 N 8.237024 5.369303 -9.198323 0 CHG=1
M  V30 24 C 9.079618 4.683560 -11.511760 0
M  V30 25 O 5.024902 6.569417 -10.708710 0
M  V30 26 N 7.948929 1.220875 -19.189450 0
M  V30 27 C 7.546765 3.404872 -12.971096 0
M  V30 28 C 6.381815 6.718801 -14.061837 0
M  V30 29 C 9.388988 5.301546 -10.121195 0 CFG=1
M  V30 30 C 11.680494 8.623793 -7.288084 0
M  V30 31 C 6.770414 5.594509 -13.330828 0
M  V30 32 C 9.731296 6.616222 -7.629549 0
M  V30 33 C 8.679460 5.524208 -7.803124 0
M  V30 34 H 11.847687 8.612990 -9.442627 0
M  V30 35 H 6.091227 7.516283 -16.049380 0
M  V30 36 H 7.064450 4.274652 -19.231575 0
M  V30 37 H 10.897682 6.725783 -10.807226 0
M  V30 38 H 9.315992 7.418464 -10.592535 0
M  V30 39 H 8.427928 -0.427767 -20.322454 0
M  V30 40 H 9.573702 6.638027 -5.475456 0
M  V30 41 H 5.608401 4.698931 -10.291668 0
M  V30 42 H 4.774797 4.839345 -11.821739 0
M  V30 43 H 8.650378 -1.224890 -16.293335 0
M  V30 44 H 7.349456 6.435643 -11.474934 0
M  V30 45 H 11.288192 8.410028 -5.174186 0
M  V30 46 H 7.700824 6.210724 -9.419182 0
M  V30 47 H 9.709037 3.798613 -11.615397 0
M  V30 48 H 9.410081 5.355838 -12.305408 0
M  V30 49 H 5.723542 7.041744 -10.252496 0
M  V30 50 H 6.756616 2.664995 -12.838782 0
M  V30 51 H 8.495572 2.925927 -13.209084 0
M  V30 52 H 6.098075 7.628987 -13.556927 0
M  V30 53 H 10.092571 4.616567 -9.650488 0
M  V30 54 H 12.428045 9.389153 -7.152961 0
M  V30 55 H 9.097142 4.570077 -7.491708 0
M  V30 56 H 7.834843 5.733198 -7.152868 0
M  V30 57 H 7.653772 4.551441 -9.304024 0
M  V30 END ATOM
M  V30 BEGIN BOND
M  V30 1 1 6 4
M  V30 2 2 10 1
M  V30 3 1 10 7
M  V30 4 1 11 2
M  V30 5 1 14 5
M  V30 6 2 14 11
M  V30 7 1 16 6
M  V30 8 1 16 15
M  V30 9 2 17 4
M  V30 10 1 17 11
M  V30 11 1 17 13
M  V30 12 2 18 8
M  V30 13 2 19 16
M  V30 14 1 19 18
M  V30 15 1 20 4
M  V30 16 2 20 5
M  V30 17 1 20 15
M  V30 18 1 21 3
M  V30 19 1 21 12
M  V30 20 1 22 9
M  V30 21 1 24 3
M  V30 22 1 25 12
M  V30 23 1 26 8
M  V30 24 2 26 15
M  V30 25 1 27 3
M  V30 26 1 27 13
M  V30 27 2 28 2
M  V30 28 1 29 7
M  V30 29 1 29 23
M  V30 30 1 29 24
M  V30 31 1 30 1
M  V30 32 2 30 22
M  V30 33 2 31 13
M  V30 34 1 31 21
M  V30 35 1 31 28
M  V30 36 2 32 9
M  V30 37 1 32 10
M  V30 38 1 33 23
M  V30 39 1 33 32
M  V30 40 1 34 1
M  V30 41 1 35 2
M  V30 42 1 36 5
M  V30 43 1 37 7
M  V30 44 1 38 7
M  V30 45 1 39 8
M  V30 46 1 40 9
M  V30 47 1 41 12
M  V30 48 1 42 12
M  V30 49 1 43 19
M  V30 50 1 21 44 CFG=1
M  V30 51 1 45 22
M  V30 52 1 46 23
M  V30 53 1 47 24
M  V30 54 1 48 24
M  V30 55 1 49 25
M  V30 56 1 50 27
M  V30 57 1 51 27
M  V30 58 1 52 28
M  V30 59 1 29 53 CFG=1
M  V30 60 1 54 30
M  V30 61 1 55 33
M  V30 62 1 56 33
M  V30 63 1 57 23
M  V30 END BOND
M  V30 END CTAB
M  END
>  <i_epik_Tot_Q>  (1) 
1

>  <i_epik_Tot_abs_Q>  (1) 
1

>  <i_i_glide_confnum>  (1) 
87

>  <i_i_glide_lignum>  (1) 
63

>  <i_i_glide_posenum>  (1) 
290

>  <i_i_glide_rotatable_bonds>  (1) 
4

>  <i_lp_mmshare_version>  (1) 
72125

>  <i_m_source_file_index>  (1) 
36

>  <i_f3d_flags>  (1) 
0

>  <num_sample>  (1) 
100

>  <b_lp_Chiralities_Consistent>  (1) 
1

>  <r_epik_Charging_Adjusted_Penalty>  (1) 
0.011867444856994655

>  <r_epik_Ionization_Penalty>  (1) 
0.012232925828486813

>  <r_epik_Ionization_Penalty_Charging>  (1) 
0.011867444856994655

>  <r_epik_Ionization_Penalty_Neutral>  (1) 
0.00036548097149215658

>  <r_epik_State_Penalty>  (1) 
-0

>  <r_glide_ring_energy>  (1) 
1.2526821352225068

>  <r_i_docking_score>  (1) 
-7.2571312256345735

>  <r_i_glide_ecoul>  (1) 
-10.261098041438155

>  <r_i_glide_eff_state_penalty>  (1) 
-0

>  <r_i_glide_einternal>  (1) 
9.4403443063528432

>  <r_i_glide_emodel>  (1) 
-67.335980334972334

>  <r_i_glide_emodel_strain>  (1) 
0.44320929134582343

>  <r_i_glide_energy>  (1) 
-47.002411674484399

>  <r_i_glide_erotb>  (1) 
0.29155208343933364

>  <r_i_glide_esite>  (1) 
-0.10000000000000001

>  <r_i_glide_evdw>  (1) 
-36.741313633046246

>  <r_i_glide_gscore>  (1) 
-7.2571312256345735

>  <r_i_glide_gscore_strain>  (1) 
0

>  <r_i_glide_hbond>  (1) 
-0.35999999999999999

>  <r_i_glide_ligand_efficiency>  (1) 
-0.21991306744347192

>  <r_i_glide_ligand_efficiency_ln>  (1) 
-1.6139484091666356

>  <r_i_glide_ligand_efficiency_sa>  (1) 
-0.70537871343962377

>  <r_i_glide_lipo>  (1) 
-2.5219132928392942

>  <r_i_glide_metal>  (1) 
-0

>  <r_i_glide_rewards>  (1) 
-1.1905396283665777

>  <r_lp_Energy>  (1) 
68.826070000000001

>  <r_lp_tautomer_probability>  (1) 
1

>  <s_epik_cmdline>  (1) 
J2VwaWtfcHl0aG9uJywgJy1waHQnLCAnMS4wJywgJy1waCcsICc3LjQnLCAnLXRuJywgJzgnLCAnLW1hJywgJzUwMCcsICctaW1hZScsICc8aW5maWxlLm1hZT4nLCAnLW9tYWUnLCAnPG91dGZpbGUubWFlPic=

>  <s_epik_input>  (1) 
W2NIXTFbY0hdW2NIXVtjSF1jKGMxMilbQ0gyXVtOSF1bQ0BIXShbQ0gyXTIpW0NIMl1OKFtDQEBIXTNbQ0gyXVtPSF0pW0NIMl1jNGMzW2NIXVtjSF1jKGM0YzU2KW5bY0hdYzZjN2MoczUpW2NIXW5bY0hdbjc=

>  <s_glide_docking_method>  (1) 
confgen

>  <s_i_glide_gridfile>  (1) 
gpcr_drd2_6luq_protein_autoprepared_prepared

>  <s_lp_Force_Field>  (1) 
S-OPLS

>  <s_lp_Variant>  (1) 
DiffSBDD_35_num_sample_100-1

>  <s_m_source_file>  (1) 
generated__ligand_DiffSBDD_2026-05-06_prepared.sdf

>  <GenAI_Model>  (1) 
DiffSBDD

>  <Protein>  (1) 
generic_title2

$$$$
DiffSBDD_55_num_sample_100
     RDKit          3D

  0  0  0  0  0  0  0  0  0  0999 V3000
M  V30 BEGIN CTAB
M  V30 COUNTS 51 54 0 0 1
M  V30 BEGIN ATOM
M  V30 1 O 8.553632 3.215236 -12.446377 0
M  V30 2 C 12.478736 8.972045 -3.524741 0
M  V30 3 C 9.520192 6.110074 -9.533040 0
M  V30 4 C 11.910572 8.113189 -9.632892 0
M  V30 5 C 8.652202 6.942558 -12.205928 0 CFG=2
M  V30 6 C 8.293692 5.529583 -11.813330 0 CFG=1
M  V30 7 S 11.434699 6.579762 -4.398939 0
M  V30 8 C 12.240100 7.529780 -3.056564 0
M  V30 9 C 11.486911 9.242197 -4.638103 0
M  V30 10 C 7.499715 3.767063 -14.486491 0
M  V30 11 N 9.435218 7.556687 -9.843991 0 CFG=1 CHG=1
M  V30 12 C 8.990463 4.529346 -12.760062 0 CFG=2
M  V30 13 C 8.518820 5.239817 -10.308044 0 CFG=2
M  V30 14 C 8.651356 4.717432 -14.249247 0
M  V30 15 C 7.779653 2.646566 -13.494594 0
M  V30 16 C 11.150816 8.048682 -6.784880 0
M  V30 17 C 10.457167 8.410360 -9.185087 0 CFG=1
M  V30 18 C 10.884615 8.032730 -5.307887 0 CFG=1
M  V30 19 C 10.111826 7.364077 -12.248226 0
M  V30 20 O 11.176414 10.383075 -4.967777 0
M  V30 21 O 7.292020 5.368966 -9.632301 0
M  V30 22 C 10.222891 8.379747 -7.694402 0
M  V30 23 C 9.187655 7.970189 -11.243716 0 CFG=1
M  V30 24 H 12.351905 9.687833 -2.712325 0
M  V30 25 H 13.472516 9.095059 -3.946864 0
M  V30 26 H 9.314578 5.974161 -8.470519 0
M  V30 27 H 10.533441 5.769907 -9.654627 0
M  V30 28 H 12.624709 8.781936 -9.154556 0
M  V30 29 H 12.228256 7.094600 -9.420706 0
M  V30 30 H 12.035331 8.265810 -10.698495 0
M  V30 31 H 8.025386 7.335593 -13.004849 0
M  V30 32 H 7.224624 5.416725 -11.996587 0
M  V30 33 H 11.578227 7.549619 -2.184205 0
M  V30 34 H 13.165592 7.043088 -2.756314 0
M  V30 35 H 7.445870 3.406464 -15.514748 0
M  V30 36 H 6.554563 4.258215 -14.254545 0
M  V30 37 H 10.068345 4.577944 -12.608782 0
M  V30 38 H 8.832624 4.198792 -10.191404 0
M  V30 39 H 8.401476 5.736551 -14.541464 0
M  V30 40 H 9.508606 4.421299 -14.851558 0
M  V30 41 H 8.350530 1.843425 -13.959990 0
M  V30 42 H 6.857335 2.218304 -13.103967 0
M  V30 43 H 12.147388 7.777298 -7.098312 0
M  V30 44 H 10.237577 9.431560 -9.491644 0
M  V30 45 H 9.814789 8.111130 -5.170269 0
M  V30 46 H 10.440289 7.982337 -13.065845 0
M  V30 47 H 10.851946 6.632488 -11.927899 0
M  V30 48 H 7.034834 6.303237 -9.569273 0
M  V30 49 H 9.228191 8.649926 -7.363122 0
M  V30 50 H 8.828587 8.986869 -11.351018 0
M  V30 51 H 8.503750 7.769354 -9.446211 0
M  V30 END ATOM
M  V30 BEGIN BOND
M  V30 1 1 6 5
M  V30 2 1 8 2
M  V30 3 1 8 7
M  V30 4 1 9 2
M  V30 5 1 11 3
M  V30 6 1 12 1
M  V30 7 1 12 6
M  V30 8 1 13 3
M  V30 9 1 13 6
M  V30 10 1 14 10
M  V30 11 1 14 12
M  V30 12 1 15 1
M  V30 13 1 15 10
M  V30 14 1 17 4
M  V30 15 1 17 11
M  V30 16 1 18 7
M  V30 17 1 18 9
M  V30 18 1 18 16
M  V30 19 1 19 5
M  V30 20 2 20 9
M  V30 21 1 21 13
M  V30 22 2 22 16
M  V30 23 1 22 17
M  V30 24 1 23 5
M  V30 25 1 23 11
M  V30 26 1 23 19
M  V30 27 1 24 2
M  V30 28 1 25 2
M  V30 29 1 26 3
M  V30 30 1 27 3
M  V30 31 1 28 4
M  V30 32 1 29 4
M  V30 33 1 30 4
M  V30 34 1 5 31 CFG=3
M  V30 35 1 6 32 CFG=1
M  V30 36 1 33 8
M  V30 37 1 34 8
M  V30 38 1 35 10
M  V30 39 1 36 10
M  V30 40 1 12 37 CFG=3
M  V30 41 1 13 38 CFG=3
M  V30 42 1 39 14
M  V30 43 1 40 14
M  V30 44 1 41 15
M  V30 45 1 42 15
M  V30 46 1 43 16
M  V30 47 1 17 44 CFG=3
M  V30 48 1 18 45 CFG=3
M  V30 49 1 46 19
M  V30 50 1 47 19
M  V30 51 1 48 21
M  V30 52 1 49 22
M  V30 53 1 23 50 CFG=1
M  V30 54 1 11 51 CFG=1
M  V30 END BOND
M  V30 END CTAB
M  END
>  <i_epik_Tot_Q>  (1) 
1

>  <i_epik_Tot_abs_Q>  (1) 
1

>  <i_i_glide_confnum>  (1) 
97

>  <i_i_glide_lignum>  (1) 
101

>  <i_i_glide_posenum>  (1) 
252

>  <i_i_glide_rotatable_bonds>  (1) 
5

>  <i_lp_mmshare_version>  (1) 
72125

>  <i_m_source_file_index>  (1) 
56

>  <i_f3d_flags>  (1) 
0

>  <num_sample>  (1) 
100

>  <b_lp_Chiralities_Consistent>  (1) 
1

>  <r_epik_Charging_Adjusted_Penalty>  (1) 
0.1887110856522376

>  <r_epik_Ionization_Penalty>  (1) 
0.094355642401006162

>  <r_epik_Ionization_Penalty_Charging>  (1) 
0.094355542826118813

>  <r_epik_Ionization_Penalty_Neutral>  (1) 
9.9574887353862298e-08

>  <r_epik_State_Penalty>  (1) 
0.094355542826118799

>  <r_glide_ring_energy>  (1) 
1.1829721722469726

>  <r_i_docking_score>  (1) 
-7.2268929312024088

>  <r_i_glide_ecoul>  (1) 
-10.825515724731501

>  <r_i_glide_eff_state_penalty>  (1) 
0.094355542826118799

>  <r_i_glide_einternal>  (1) 
2.1594728376874901

>  <r_i_glide_emodel>  (1) 
-49.819000240413672

>  <r_i_glide_emodel_strain>  (1) 
0.53141457788633772

>  <r_i_glide_energy>  (1) 
-34.179039405595965

>  <r_i_glide_erotb>  (1) 
0.49519417565235591

>  <r_i_glide_esite>  (1) 
-0.10000000000000001

>  <r_i_glide_evdw>  (1) 
-23.353523680864463

>  <r_i_glide_gscore>  (1) 
-7.3212484740285273

>  <r_i_glide_gscore_strain>  (1) 
0

>  <r_i_glide_hbond>  (1) 
-0.35999999999999999

>  <r_i_glide_ligand_efficiency>  (1) 
-0.31421273613923517

>  <r_i_glide_ligand_efficiency_ln>  (1) 
-1.7475282406068349

>  <r_i_glide_ligand_efficiency_sa>  (1) 
-0.8935792249551836

>  <r_i_glide_lipo>  (1) 
-2.1620446180590216

>  <r_i_glide_metal>  (1) 
-0

>  <r_i_glide_rewards>  (1) 
-2.4028944888689123

>  <r_lp_Energy>  (1) 
19.169269

>  <r_lp_tautomer_probability>  (1) 
0.99995000000000001

>  <s_epik_cmdline>  (1) 
J2VwaWtfcHl0aG9uJywgJy1waHQnLCAnMS4wJywgJy1waCcsICc3LjQnLCAnLXRuJywgJzgnLCAnLW1hJywgJzUwMCcsICctaW1hZScsICc8aW5maWxlLm1hZT4nLCAnLW9tYWUnLCAnPG91dGZpbGUubWFlPic=

>  <s_epik_input>  (1) 
W0NIMl0xW0NIMl1bQ0gyXU9bQ0BASF0xW0NASF0yW0NASF0oW09IXSlbQ0gyXU4oW0NASF0oW0NASF0yMylbQ0gyXTMpW0NASF0oW0NIM10pXFtDSF09W0NIXVxbQ0BIXTRTW0NIMl1bQ0gyXUM0PU8=

>  <s_glide_docking_method>  (1) 
confgen

>  <s_i_glide_gridfile>  (1) 
gpcr_drd2_6luq_protein_autoprepared_prepared

>  <s_lp_Force_Field>  (1) 
S-OPLS

>  <s_lp_Variant>  (1) 
DiffSBDD_55_num_sample_100-2

>  <s_m_source_file>  (1) 
generated__ligand_DiffSBDD_2026-05-06_prepared.sdf

>  <GenAI_Model>  (1) 
DiffSBDD

>  <Protein>  (1) 
generic_title2

$$$$
DiffSBDD_55_num_sample_100
     RDKit          3D

  0  0  0  0  0  0  0  0  0  0999 V3000
M  V30 BEGIN CTAB
M  V30 COUNTS 51 54 0 0 1
M  V30 BEGIN ATOM
M  V30 1 O 7.971644 3.874978 -13.133870 0
M  V30 2 C 12.926337 8.010148 -3.095075 0
M  V30 3 C 9.868886 7.184999 -9.965444 0
M  V30 4 C 9.434279 8.430646 -7.307380 0
M  V30 5 C 8.718677 4.660021 -10.587653 0 CFG=2
M  V30 6 C 9.141843 5.540982 -11.746318 0 CFG=1
M  V30 7 S 11.834632 9.132591 -5.306334 0
M  V30 8 C 12.632863 9.369276 -3.702625 0
M  V30 9 C 11.834830 7.109979 -3.588741 0
M  V30 10 C 6.201016 5.084331 -14.055133 0
M  V30 11 N 9.035199 6.568807 -8.899243 0 CFG=2 CHG=1
M  V30 12 C 8.342927 5.252483 -13.045467 0 CFG=2
M  V30 13 C 9.168566 7.016286 -11.320778 0 CFG=2
M  V30 14 C 7.029284 6.030440 -13.221781 0
M  V30 15 C 6.587163 3.746867 -13.440553 0
M  V30 16 C 11.496064 6.411029 -6.016872 0
M  V30 17 C 9.435464 6.902400 -7.494416 0 CFG=1
M  V30 18 C 11.205008 7.462445 -4.946697 0 CFG=2
M  V30 19 C 7.435704 4.898480 -9.837100 0
M  V30 20 O 11.439764 6.169279 -2.922767 0
M  V30 21 O 9.834839 7.769075 -12.291666 0
M  V30 22 C 10.734202 6.168985 -7.112831 0
M  V30 23 C 8.757991 5.122719 -9.133966 0 CFG=1
M  V30 24 H 13.834763 7.580229 -3.490395 0
M  V30 25 H 12.981546 8.038175 -2.006317 0
M  V30 26 H 10.866992 6.750224 -9.975908 0
M  V30 27 H 9.995122 8.252846 -9.790052 0
M  V30 28 H 9.240350 8.712492 -6.276771 0
M  V30 29 H 10.365981 8.885899 -7.641951 0
M  V30 30 H 8.634839 8.900938 -7.878778 0
M  V30 31 H 9.005564 3.622184 -10.739662 0
M  V30 32 H 10.172572 5.242237 -11.951621 0
M  V30 33 H 13.543446 9.948360 -3.831184 0
M  V30 34 H 11.962035 9.927390 -3.048574 0
M  V30 35 H 6.510377 5.122506 -15.100299 0
M  V30 36 H 5.132235 5.292294 -14.001306 0
M  V30 37 H 8.977930 5.463877 -13.906821 0
M  V30 38 H 8.164904 7.427428 -11.240079 0
M  V30 39 H 6.527645 6.189423 -12.268104 0
M  V30 40 H 7.169118 7.002920 -13.694308 0
M  V30 41 H 6.396314 2.904167 -14.104892 0
M  V30 42 H 6.035460 3.582011 -12.513502 0
M  V30 43 H 12.384711 5.815233 -5.868661 0
M  V30 44 H 8.645569 6.496367 -6.860176 0
M  V30 45 H 10.131428 7.501315 -4.797527 0
M  V30 46 H 6.859313 4.022306 -9.549847 0
M  V30 47 H 6.835294 5.768835 -10.087371 0
M  V30 48 H 9.290929 7.820033 -13.063777 0
M  V30 49 H 11.047110 5.391691 -7.792030 0
M  V30 50 H 9.037048 4.435666 -8.337488 0
M  V30 51 H 8.123360 7.035966 -9.030875 0
M  V30 END ATOM
M  V30 BEGIN BOND
M  V30 1 1 6 5
M  V30 2 1 8 2
M  V30 3 1 8 7
M  V30 4 1 9 2
M  V30 5 1 11 3
M  V30 6 1 12 1
M  V30 7 1 12 6
M  V30 8 1 13 3
M  V30 9 1 13 6
M  V30 10 1 14 10
M  V30 11 1 14 12
M  V30 12 1 15 1
M  V30 13 1 15 10
M  V30 14 1 17 4
M  V30 15 1 17 11
M  V30 16 1 18 7
M  V30 17 1 18 9
M  V30 18 1 18 16
M  V30 19 1 19 5
M  V30 20 2 20 9
M  V30 21 1 21 13
M  V30 22 2 22 16
M  V30 23 1 22 17
M  V30 24 1 23 5
M  V30 25 1 23 11
M  V30 26 1 23 19
M  V30 27 1 24 2
M  V30 28 1 25 2
M  V30 29 1 26 3
M  V30 30 1 27 3
M  V30 31 1 28 4
M  V30 32 1 29 4
M  V30 33 1 30 4
M  V30 34 1 5 31 CFG=1
M  V30 35 1 6 32 CFG=3
M  V30 36 1 33 8
M  V30 37 1 34 8
M  V30 38 1 35 10
M  V30 39 1 36 10
M  V30 40 1 12 37 CFG=3
M  V30 41 1 13 38 CFG=1
M  V30 42 1 39 14
M  V30 43 1 40 14
M  V30 44 1 41 15
M  V30 45 1 42 15
M  V30 46 1 43 16
M  V30 47 1 17 44 CFG=1
M  V30 48 1 18 45 CFG=1
M  V30 49 1 46 19
M  V30 50 1 47 19
M  V30 51 1 48 21
M  V30 52 1 49 22
M  V30 53 1 23 50 CFG=1
M  V30 54 1 11 51 CFG=3
M  V30 END BOND
M  V30 END CTAB
M  END
>  <i_epik_Tot_Q>  (1) 
1

>  <i_epik_Tot_abs_Q>  (1) 
1

>  <i_i_glide_confnum>  (1) 
46

>  <i_i_glide_lignum>  (1) 
106

>  <i_i_glide_posenum>  (1) 
53

>  <i_i_glide_rotatable_bonds>  (1) 
5

>  <i_lp_mmshare_version>  (1) 
72125

>  <i_m_source_file_index>  (1) 
56

>  <i_f3d_flags>  (1) 
0

>  <num_sample>  (1) 
100

>  <b_lp_Chiralities_Consistent>  (1) 
1

>  <r_epik_Charging_Adjusted_Penalty>  (1) 
0.1887110856522376

>  <r_epik_Ionization_Penalty>  (1) 
0.094355642401006162

>  <r_epik_Ionization_Penalty_Charging>  (1) 
0.094355542826118813

>  <r_epik_Ionization_Penalty_Neutral>  (1) 
9.9574887353862298e-08

>  <r_epik_State_Penalty>  (1) 
0.094355542826118799

>  <r_glide_ring_energy>  (1) 
0.48034924446919847

>  <r_i_docking_score>  (1) 
-7.2247730415495495

>  <r_i_glide_ecoul>  (1) 
-6.549036601907396

>  <r_i_glide_eff_state_penalty>  (1) 
0.094355542826118799

>  <r_i_glide_einternal>  (1) 
9.2478999076426991

>  <r_i_glide_emodel>  (1) 
-50.368675324310459

>  <r_i_glide_emodel_strain>  (1) 
2.2395920800090963

>  <r_i_glide_energy>  (1) 
-37.850493118160585

>  <r_i_glide_erotb>  (1) 
0.34663592295664913

>  <r_i_glide_esite>  (1) 
-0.10000000000000001

>  <r_i_glide_evdw>  (1) 
-31.301456516253193

>  <r_i_glide_gscore>  (1) 
-7.3191285843756679

>  <r_i_glide_gscore_strain>  (1) 
0

>  <r_i_glide_hbond>  (1) 
-0.17339957253745569

>  <r_i_glide_ligand_efficiency>  (1) 
-0.31412056702389346

>  <r_i_glide_ligand_efficiency_ln>  (1) 
-1.7470156320666768

>  <r_i_glide_ligand_efficiency_sa>  (1) 
-0.89331710825150112

>  <r_i_glide_lipo>  (1) 
-2.0089616322136679

>  <r_i_glide_metal>  (1) 
-0

>  <r_i_glide_rewards>  (1) 
-2.8359749864824231

>  <r_lp_Energy>  (1) 
23.659068999999999

>  <r_lp_tautomer_probability>  (1) 
0.99995000000000001

>  <s_epik_cmdline>  (1) 
J2VwaWtfcHl0aG9uJywgJy1waHQnLCAnMS4wJywgJy1waCcsICc3LjQnLCAnLXRuJywgJzgnLCAnLW1hJywgJzUwMCcsICctaW1hZScsICc8aW5maWxlLm1hZT4nLCAnLW9tYWUnLCAnPG91dGZpbGUubWFlPic=

>  <s_epik_input>  (1) 
W0NIMl0xW0NIMl1bQ0gyXU9bQ0BASF0xW0NASF0yW0NASF0oW09IXSlbQ0gyXU4oW0NASF0oW0NASF0yMylbQ0gyXTMpW0NASF0oW0NIM10pL1tDSF09W0NIXVxbQ0BASF00U1tDSDJdW0NIMl1DND1P

>  <s_glide_docking_method>  (1) 
confgen

>  <s_i_glide_gridfile>  (1) 
gpcr_drd2_6luq_protein_autoprepared_prepared

>  <s_lp_Force_Field>  (1) 
S-OPLS

>  <s_lp_Variant>  (1) 
DiffSBDD_55_num_sample_100-7

>  <s_m_source_file>  (1) 
generated__ligand_DiffSBDD_2026-05-06_prepared.sdf

>  <GenAI_Model>  (1) 
DiffSBDD

>  <Protein>  (1) 
generic_title2

$$$$
DiffSBDD_22_num_sample_100
     RDKit          3D

  0  0  0  0  0  0  0  0  0  0999 V3000
M  V30 BEGIN CTAB
M  V30 COUNTS 46 48 0 0 1
M  V30 BEGIN ATOM
M  V30 1 C 6.222681 6.913671 -14.527277 0
M  V30 2 C 5.485830 6.864434 -17.439193 0
M  V30 3 C 7.507681 5.849805 -12.739666 0
M  V30 4 C 12.565123 9.209792 -6.728096 0
M  V30 5 O 9.434817 4.169300 -11.364538 0
M  V30 6 C 6.590218 6.098790 -19.310026 0
M  V30 7 N 6.566169 6.171269 -16.930788 0
M  V30 8 C 8.839300 5.008597 -9.225528 0
M  V30 9 C 7.817184 5.133258 -15.063278 0
M  V30 10 C 8.719682 4.941453 -10.744676 0
M  V30 11 O 4.634819 7.447727 -19.511049 0 CHG=-1
M  V30 12 C 9.063467 7.694284 -6.563987 0
M  V30 13 O 11.237039 8.365605 -4.952472 0
M  V30 14 N 9.034838 6.361558 -8.659302 0 CHG=1
M  V30 15 N 7.806065 5.769259 -11.320791 0
M  V30 16 C 8.933246 6.304356 -7.179700 0
M  V30 17 C 10.408905 8.459861 -8.479227 0
M  V30 18 C 10.261171 7.071616 -9.135933 0
M  V30 19 C 6.551659 6.791658 -13.162851 0
M  V30 20 O 4.614866 7.409174 -16.762181 0
M  V30 21 C 11.313270 8.575603 -6.159658 0
M  V30 22 C 6.855201 6.074328 -15.494613 0
M  V30 23 S 7.612278 5.395156 -18.112589 0
M  V30 24 N 10.308257 8.275148 -7.026522 0
M  V30 25 C 8.142716 5.014863 -13.704124 0
M  V30 26 C 5.529758 6.829402 -18.893895 0
M  V30 27 H 5.506343 7.654929 -14.812047 0
M  V30 28 H 13.027395 8.615468 -7.516827 0
M  V30 29 H 12.234817 10.169342 -7.091652 0
M  V30 30 H 13.304724 9.385089 -5.946599 0
M  V30 31 H 6.827796 5.934423 -20.349923 0
M  V30 32 H 7.927607 4.570354 -8.815724 0
M  V30 33 H 9.663194 4.366770 -8.907371 0
M  V30 34 H 8.309615 4.493275 -15.777284 0
M  V30 35 H 8.234878 8.343852 -6.843906 0
M  V30 36 H 9.034868 7.606538 -5.491680 0
M  V30 37 H 7.276667 6.386466 -10.712004 0
M  V30 38 H 7.991277 5.844551 -6.875513 0
M  V30 39 H 9.731262 5.670304 -6.791664 0
M  V30 40 H 9.571743 9.079462 -8.801452 0
M  V30 41 H 11.302952 8.957381 -8.850157 0
M  V30 42 H 11.137422 6.468718 -8.902801 0
M  V30 43 H 10.236056 7.191243 -10.219139 0
M  V30 44 H 6.069361 7.430780 -12.437009 0
M  V30 45 H 8.871108 4.287467 -13.424361 0
M  V30 46 H 8.242672 6.932050 -8.964533 0
M  V30 END ATOM
M  V30 BEGIN BOND
M  V30 1 1 7 2
M  V30 2 2 10 5
M  V30 3 1 10 8
M  V30 4 1 14 8
M  V30 5 1 15 3
M  V30 6 1 15 10
M  V30 7 1 16 12
M  V30 8 1 16 14
M  V30 9 1 18 14
M  V30 10 1 18 17
M  V30 11 2 19 1
M  V30 12 1 19 3
M  V30 13 2 20 2
M  V30 14 1 21 4
M  V30 15 2 21 13
M  V30 16 1 22 1
M  V30 17 1 22 7
M  V30 18 2 22 9
M  V30 19 1 23 6
M  V30 20 1 23 7
M  V30 21 1 24 12
M  V30 22 1 24 17
M  V30 23 1 24 21
M  V30 24 2 25 3
M  V30 25 1 25 9
M  V30 26 1 26 2
M  V30 27 2 26 6
M  V30 28 1 26 11
M  V30 29 1 27 1
M  V30 30 1 28 4
M  V30 31 1 29 4
M  V30 32 1 30 4
M  V30 33 1 31 6
M  V30 34 1 32 8
M  V30 35 1 33 8
M  V30 36 1 34 9
M  V30 37 1 35 12
M  V30 38 1 36 12
M  V30 39 1 37 15
M  V30 40 1 38 16
M  V30 41 1 39 16
M  V30 42 1 40 17
M  V30 43 1 41 17
M  V30 44 1 42 18
M  V30 45 1 43 18
M  V30 46 1 44 19
M  V30 47 1 45 25
M  V30 48 1 46 14
M  V30 END BOND
M  V30 END CTAB
M  END
>  <i_epik_Tot_Q>  (1) 
0

>  <i_epik_Tot_abs_Q>  (1) 
2

>  <i_i_glide_confnum>  (1) 
63

>  <i_i_glide_lignum>  (1) 
35

>  <i_i_glide_posenum>  (1) 
312

>  <i_i_glide_rotatable_bonds>  (1) 
6

>  <i_lp_mmshare_version>  (1) 
72125

>  <i_m_source_file_index>  (1) 
23

>  <i_f3d_flags>  (1) 
0

>  <num_sample>  (1) 
100

>  <b_lp_Chiralities_Consistent>  (1) 
1

>  <r_epik_Charging_Adjusted_Penalty>  (1) 
0.707433222311869

>  <r_epik_Ionization_Penalty>  (1) 
0.35375602504973802

>  <r_epik_Ionization_Penalty_Charging>  (1) 
0.35374474494757885

>  <r_epik_Ionization_Penalty_Neutral>  (1) 
1.1280102159195983e-05

>  <r_epik_State_Penalty>  (1) 
0.35368847736429015

>  <r_glide_ring_energy>  (1) 
0

>  <r_i_docking_score>  (1) 
-7.216859265261367

>  <r_i_glide_ecoul>  (1) 
-7.3415799635664953

>  <r_i_glide_eff_state_penalty>  (1) 
0.35368847736429015

>  <r_i_glide_einternal>  (1) 
11.013054604701853

>  <r_i_glide_emodel>  (1) 
-65.264313322570615

>  <r_i_glide_emodel_strain>  (1) 
0.062650137960417851

>  <r_i_glide_energy>  (1) 
-44.909453651739746

>  <r_i_glide_erotb>  (1) 
0.47811857986973644

>  <r_i_glide_esite>  (1) 
-0.16949894581816061

>  <r_i_glide_evdw>  (1) 
-37.56787368817325

>  <r_i_glide_gscore>  (1) 
-7.5705477426256573

>  <r_i_glide_gscore_strain>  (1) 
0

>  <r_i_glide_hbond>  (1) 
-0.35999999999999999

>  <r_i_glide_ligand_efficiency>  (1) 
-0.27757151020236026

>  <r_i_glide_ligand_efficiency_ln>  (1) 
-1.6948557179999189

>  <r_i_glide_ligand_efficiency_sa>  (1) 
-0.82230450767638874

>  <r_i_glide_lipo>  (1) 
-1.4826212866662867

>  <r_i_glide_metal>  (1) 
-0

>  <r_i_glide_rewards>  (1) 
-3.0569154110673096

>  <r_lp_Energy>  (1) 
50.884591999999998

>  <r_lp_tautomer_probability>  (1) 
1

>  <s_epik_cmdline>  (1) 
J2VwaWtfcHl0aG9uJywgJy1waHQnLCAnMS4wJywgJy1waCcsICc3LjQnLCAnLXRuJywgJzgnLCAnLW1hJywgJzUwMCcsICctaW1hZScsICc8aW5maWxlLm1hZT4nLCAnLW9tYWUnLCAnPG91dGZpbGUubWFlPic=

>  <s_epik_input>  (1) 
Tz1DMVtDSDJdU04oQzE9TyljKFtjSF1bY0hdMilbY0hdW2NIXWMyW05IXUMoPU8pW0NIMl1OM1tDSDJdW0NIMl1OKFtDSDJdW0NIMl0zKUMoPU8pW0NIM10=

>  <s_glide_docking_method>  (1) 
confgen

>  <s_i_glide_gridfile>  (1) 
gpcr_drd2_6luq_protein_autoprepared_prepared

>  <s_lp_Force_Field>  (1) 
S-OPLS

>  <s_lp_Variant>  (1) 
DiffSBDD_22_num_sample_100-1

>  <s_m_source_file>  (1) 
generated__ligand_DiffSBDD_2026-05-06_prepared.sdf

>  <GenAI_Model>  (1) 
DiffSBDD

>  <Protein>  (1) 
generic_title2

$$$$
DiffSBDD_55_num_sample_100
     RDKit          3D

  0  0  0  0  0  0  0  0  0  0999 V3000
M  V30 BEGIN CTAB
M  V30 COUNTS 51 54 0 0 1
M  V30 BEGIN ATOM
M  V30 1 O 6.753624 4.512903 -14.091646 0
M  V30 2 C 12.342961 8.969286 -3.839368 0
M  V30 3 C 9.069108 7.361724 -11.718573 0
M  V30 4 C 11.684527 7.848867 -10.046122 0
M  V30 5 C 8.842692 4.622323 -10.908783 0 CFG=2
M  V30 6 C 8.350073 5.023783 -12.300535 0 CFG=1
M  V30 7 S 11.434834 6.569301 -4.789645 0
M  V30 8 C 12.144580 7.510791 -3.407973 0
M  V30 9 C 11.513781 9.212611 -5.093541 0
M  V30 10 C 7.445238 2.393218 -14.567602 0
M  V30 11 N 9.265941 7.076058 -10.275464 0 CFG=2 CHG=1
M  V30 12 C 7.237013 4.070443 -12.821920 0 CFG=2
M  V30 13 C 7.929633 6.510325 -12.292284 0 CFG=2
M  V30 14 C 7.707638 2.624735 -13.091666 0
M  V30 15 C 7.434914 3.807659 -15.115550 0
M  V30 16 C 11.004842 7.937117 -7.178915 0
M  V30 17 C 10.215134 8.008219 -9.597769 0 CFG=1
M  V30 18 C 10.791974 8.003277 -5.680596 0 CFG=1
M  V30 19 C 8.087359 4.969325 -9.643741 0
M  V30 20 O 11.434762 10.326129 -5.606788 0
M  V30 21 O 7.665584 6.963261 -13.599825 0
M  V30 22 C 10.012766 8.050169 -8.084694 0
M  V30 23 C 9.420384 5.636733 -9.928483 0 CFG=1
M  V30 24 H 12.057591 9.661838 -3.046829 0
M  V30 25 H 13.389266 9.157545 -4.080288 0
M  V30 26 H 9.985784 7.178000 -12.279413 0
M  V30 27 H 8.827217 8.418594 -11.840532 0
M  V30 28 H 12.277946 8.709221 -9.732277 0
M  V30 29 H 12.149257 6.969291 -9.615341 0
M  V30 30 H 11.789820 7.769365 -11.125290 0
M  V30 31 H 9.337697 3.653514 -10.898955 0
M  V30 32 H 9.208688 4.931502 -12.968258 0
M  V30 33 H 11.459589 7.459093 -2.560921 0
M  V30 34 H 13.082856 7.056688 -3.090003 0
M  V30 35 H 6.466924 1.931982 -14.705913 0
M  V30 36 H 8.193451 1.757214 -15.041718 0
M  V30 37 H 6.397407 4.073546 -12.125388 0
M  V30 38 H 7.016149 6.653235 -11.713108 0
M  V30 39 H 8.769203 2.502217 -12.874099 0
M  V30 40 H 7.162184 1.896792 -12.491937 0
M  V30 41 H 6.928046 3.889398 -16.075875 0
M  V30 42 H 8.448972 4.195371 -15.227044 0
M  V30 43 H 12.022489 7.797300 -7.509162 0
M  V30 44 H 9.898921 9.003744 -9.891825 0
M  V30 45 H 9.725217 8.098899 -5.484475 0
M  V30 46 H 8.063690 4.242352 -8.836101 0
M  V30 47 H 7.172649 5.548769 -9.740013 0
M  V30 48 H 7.131634 6.298866 -14.022635 0
M  V30 49 H 8.996262 8.187598 -7.741763 0
M  V30 50 H 10.234842 5.390498 -9.253391 0
M  V30 51 H 8.356001 7.341213 -9.882147 0
M  V30 END ATOM
M  V30 BEGIN BOND
M  V30 1 1 6 5
M  V30 2 1 8 2
M  V30 3 1 8 7
M  V30 4 1 9 2
M  V30 5 1 11 3
M  V30 6 1 12 1
M  V30 7 1 12 6
M  V30 8 1 13 3
M  V30 9 1 13 6
M  V30 10 1 14 10
M  V30 11 1 14 12
M  V30 12 1 15 1
M  V30 13 1 15 10
M  V30 14 1 17 4
M  V30 15 1 17 11
M  V30 16 1 18 7
M  V30 17 1 18 9
M  V30 18 1 18 16
M  V30 19 1 19 5
M  V30 20 2 20 9
M  V30 21 1 21 13
M  V30 22 2 22 16
M  V30 23 1 22 17
M  V30 24 1 23 5
M  V30 25 1 23 11
M  V30 26 1 23 19
M  V30 27 1 24 2
M  V30 28 1 25 2
M  V30 29 1 26 3
M  V30 30 1 27 3
M  V30 31 1 28 4
M  V30 32 1 29 4
M  V30 33 1 30 4
M  V30 34 1 5 31 CFG=3
M  V30 35 1 6 32 CFG=3
M  V30 36 1 33 8
M  V30 37 1 34 8
M  V30 38 1 35 10
M  V30 39 1 36 10
M  V30 40 1 12 37 CFG=1
M  V30 41 1 13 38 CFG=1
M  V30 42 1 39 14
M  V30 43 1 40 14
M  V30 44 1 41 15
M  V30 45 1 42 15
M  V30 46 1 43 16
M  V30 47 1 17 44 CFG=3
M  V30 48 1 18 45 CFG=3
M  V30 49 1 46 19
M  V30 50 1 47 19
M  V30 51 1 48 21
M  V30 52 1 49 22
M  V30 53 1 23 50 CFG=1
M  V30 54 1 11 51 CFG=1
M  V30 END BOND
M  V30 END CTAB
M  END
>  <i_epik_Tot_Q>  (1) 
1

>  <i_epik_Tot_abs_Q>  (1) 
1

>  <i_i_glide_confnum>  (1) 
170

>  <i_i_glide_lignum>  (1) 
100

>  <i_i_glide_posenum>  (1) 
109

>  <i_i_glide_rotatable_bonds>  (1) 
5

>  <i_lp_mmshare_version>  (1) 
72125

>  <i_m_source_file_index>  (1) 
56

>  <i_f3d_flags>  (1) 
0

>  <num_sample>  (1) 
100

>  <b_lp_Chiralities_Consistent>  (1) 
1

>  <r_epik_Charging_Adjusted_Penalty>  (1) 
0.1887110856522376

>  <r_epik_Ionization_Penalty>  (1) 
0.094355642401006162

>  <r_epik_Ionization_Penalty_Charging>  (1) 
0.094355542826118813

>  <r_epik_Ionization_Penalty_Neutral>  (1) 
9.9574887353862298e-08

>  <r_epik_State_Penalty>  (1) 
0.094355542826118799

>  <r_glide_ring_energy>  (1) 
1.2361918707854118

>  <r_i_docking_score>  (1) 
-7.1984883368172703

>  <r_i_glide_ecoul>  (1) 
-6.2862377861494343

>  <r_i_glide_eff_state_penalty>  (1) 
0.094355542826118799

>  <r_i_glide_einternal>  (1) 
3.9534769961051093

>  <r_i_glide_emodel>  (1) 
-62.260370432290628

>  <r_i_glide_emodel_strain>  (1) 
1.1188616719988858

>  <r_i_glide_energy>  (1) 
-43.934732903759887

>  <r_i_glide_erotb>  (1) 
0.49519417565235591

>  <r_i_glide_esite>  (1) 
-0.10000000000000001

>  <r_i_glide_evdw>  (1) 
-37.648495117610452

>  <r_i_glide_gscore>  (1) 
-7.2928438796433888

>  <r_i_glide_gscore_strain>  (1) 
0

>  <r_i_glide_hbond>  (1) 
-0.20000000000000001

>  <r_i_glide_ligand_efficiency>  (1) 
-0.31297775377466391

>  <r_i_glide_ligand_efficiency_ln>  (1) 
-1.7406597521258864

>  <r_i_glide_ligand_efficiency_sa>  (1) 
-0.89006709938788042

>  <r_i_glide_lipo>  (1) 
-2.2183558974190554

>  <r_i_glide_metal>  (1) 
-0

>  <r_i_glide_rewards>  (1) 
-2.4443217340737515

>  <r_lp_Energy>  (1) 
19.402072999999998

>  <r_lp_tautomer_probability>  (1) 
0.99995000000000001

>  <s_epik_cmdline>  (1) 
J2VwaWtfcHl0aG9uJywgJy1waHQnLCAnMS4wJywgJy1waCcsICc3LjQnLCAnLXRuJywgJzgnLCAnLW1hJywgJzUwMCcsICctaW1hZScsICc8aW5maWxlLm1hZT4nLCAnLW9tYWUnLCAnPG91dGZpbGUubWFlPic=

>  <s_epik_input>  (1) 
W0NIMl0xW0NIMl1bQ0gyXU9bQ0BASF0xW0NASF0yW0NASF0oW09IXSlbQ0gyXU4oW0NASF0oW0NASF0yMylbQ0gyXTMpW0NASF0oW0NIM10pXFtDSF09W0NIXVxbQ0BIXTRTW0NIMl1bQ0gyXUM0PU8=

>  <s_glide_docking_method>  (1) 
confgen

>  <s_i_glide_gridfile>  (1) 
gpcr_drd2_6luq_protein_autoprepared_prepared

>  <s_lp_Force_Field>  (1) 
S-OPLS

>  <s_lp_Variant>  (1) 
DiffSBDD_55_num_sample_100-1

>  <s_m_source_file>  (1) 
generated__ligand_DiffSBDD_2026-05-06_prepared.sdf

>  <GenAI_Model>  (1) 
DiffSBDD

>  <Protein>  (1) 
generic_title2

$$$$
DiffSBDD_31_num_sample_100
     RDKit          3D

  0  0  0  0  0  0  0  0  0  0999 V3000
M  V30 BEGIN CTAB
M  V30 COUNTS 50 53 0 0 1
M  V30 BEGIN ATOM
M  V30 1 C 9.752538 6.837750 -11.562265 0
M  V30 2 C 10.139279 7.051075 -9.073876 0
M  V30 3 C 10.933136 7.827151 -6.927037 0
M  V30 4 O 13.032593 8.511192 -1.713574 0
M  V30 5 C 7.647394 2.397131 -14.321927 0
M  V30 6 C 7.274615 3.382863 -13.198205 0 CFG=1
M  V30 7 C 11.291266 6.960002 -4.591313 0
M  V30 8 N 9.679178 6.348051 -10.188282 0
M  V30 9 C 11.434839 7.987181 -5.556814 0
M  V30 10 O 11.689528 6.169301 -2.347561 0
M  V30 11 S 10.035311 6.391015 -7.433325 0
M  V30 12 C 11.834839 7.137739 -3.289911 0
M  V30 13 C 8.345120 7.054996 -12.126134 0
M  V30 14 C 7.989135 4.752816 -13.281810 0 CFG=1
M  V30 15 C 8.343425 4.385072 -15.772769 0 CFG=1
M  V30 16 N 11.136550 8.704664 -7.913221 0
M  V30 17 Cl 8.117445 5.099053 -17.390242 0
M  V30 18 C 9.027913 5.038149 -10.166573 0
M  V30 19 C 7.774789 5.329281 -14.703203 0
M  V30 20 N 10.701340 8.259446 -9.137850 0
M  V30 21 C 12.514230 8.325091 -2.966866 0
M  V30 22 C 12.121321 9.171465 -5.210955 0
M  V30 23 C 12.662797 9.322922 -3.925790 0
M  V30 24 C 7.544556 5.735946 -12.149615 0
M  V30 25 C 7.655531 3.015460 -15.727354 0
M  V30 26 C 7.593699 5.133528 -10.717814 0
M  V30 27 Cl 5.511533 3.636383 -13.091667 0
M  V30 28 H 10.301565 7.777197 -11.602842 0
M  V30 29 H 10.319171 6.136294 -12.175079 0
M  V30 30 H 13.350139 9.395216 -1.559781 0
M  V30 31 H 6.980416 1.534267 -14.298281 0
M  V30 32 H 8.634839 1.996313 -14.104880 0
M  V30 33 H 7.564273 2.871048 -12.291667 0
M  V30 34 H 10.775387 6.044949 -4.839527 0
M  V30 35 H 11.216796 5.400138 -2.631753 0
M  V30 36 H 7.828983 7.776026 -11.491667 0
M  V30 37 H 8.392498 7.535177 -13.097890 0
M  V30 38 H 9.055866 4.560316 -13.163370 0
M  V30 39 H 9.418634 4.269881 -15.628392 0
M  V30 40 H 9.611928 4.335106 -10.761912 0
M  V30 41 H 8.998165 4.625765 -9.159361 0
M  V30 42 H 6.712593 5.496999 -14.884447 0
M  V30 43 H 8.244476 6.300358 -14.820648 0
M  V30 44 H 12.252924 9.955371 -5.942724 0
M  V30 45 H 13.204765 10.194328 -3.678137 0
M  V30 46 H 6.509219 6.015997 -12.344738 0
M  V30 47 H 6.634839 3.127830 -16.068494 0
M  V30 48 H 8.133195 2.331918 -16.430167 0
M  V30 49 H 7.014810 5.769301 -10.050427 0
M  V30 50 H 7.093979 4.170346 -10.648021 0
M  V30 END ATOM
M  V30 BEGIN BOND
M  V30 1 1 6 5
M  V30 2 1 8 1
M  V30 3 1 8 2
M  V30 4 1 9 3
M  V30 5 2 9 7
M  V30 6 1 11 2
M  V30 7 1 11 3
M  V30 8 1 12 7
M  V30 9 1 12 10
M  V30 10 1 13 1
M  V30 11 1 14 6
M  V30 12 2 16 3
M  V30 13 1 17 15
M  V30 14 1 18 8
M  V30 15 1 19 14
M  V30 16 1 19 15
M  V30 17 2 20 2
M  V30 18 1 20 16
M  V30 19 1 21 4
M  V30 20 2 21 12
M  V30 21 1 22 9
M  V30 22 1 23 21
M  V30 23 2 23 22
M  V30 24 1 24 13
M  V30 25 1 24 14
M  V30 26 1 25 5
M  V30 27 1 25 15
M  V30 28 1 26 18
M  V30 29 1 26 24
M  V30 30 1 27 6
M  V30 31 1 28 1
M  V30 32 1 29 1
M  V30 33 1 30 4
M  V30 34 1 31 5
M  V30 35 1 32 5
M  V30 36 1 6 33 CFG=1
M  V30 37 1 34 7
M  V30 38 1 35 10
M  V30 39 1 36 13
M  V30 40 1 37 13
M  V30 41 1 14 38 CFG=1
M  V30 42 1 15 39 CFG=1
M  V30 43 1 40 18
M  V30 44 1 41 18
M  V30 45 1 42 19
M  V30 46 1 43 19
M  V30 47 1 44 22
M  V30 48 1 45 23
M  V30 49 1 46 24
M  V30 50 1 47 25
M  V30 51 1 48 25
M  V30 52 1 49 26
M  V30 53 1 50 26
M  V30 END BOND
M  V30 END CTAB
M  END
>  <i_epik_Tot_Q>  (1) 
0

>  <i_epik_Tot_abs_Q>  (1) 
0

>  <i_i_glide_confnum>  (1) 
17

>  <i_i_glide_lignum>  (1) 
57

>  <i_i_glide_posenum>  (1) 
160

>  <i_i_glide_rotatable_bonds>  (1) 
5

>  <i_lp_mmshare_version>  (1) 
72125

>  <i_m_source_file_index>  (1) 
32

>  <i_f3d_flags>  (1) 
0

>  <num_sample>  (1) 
100

>  <b_lp_Chiralities_Consistent>  (1) 
1

>  <r_epik_Charging_Adjusted_Penalty>  (1) 
0.030402742638392096

>  <r_epik_Ionization_Penalty>  (1) 
0.030794834145842404

>  <r_epik_Ionization_Penalty_Charging>  (1) 
0

>  <r_epik_Ionization_Penalty_Neutral>  (1) 
0.030794834145842404

>  <r_epik_State_Penalty>  (1) 
0.030402742638392096

>  <r_glide_ring_energy>  (1) 
1.8967887167309052

>  <r_i_docking_score>  (1) 
-7.1807605888500792

>  <r_i_glide_ecoul>  (1) 
-6.7241353580933598

>  <r_i_glide_eff_state_penalty>  (1) 
0.030402742638392096

>  <r_i_glide_einternal>  (1) 
5.2167234981073465

>  <r_i_glide_emodel>  (1) 
-57.157878462809848

>  <r_i_glide_emodel_strain>  (1) 
0.0006679647090521712

>  <r_i_glide_energy>  (1) 
-48.612193232407634

>  <r_i_glide_erotb>  (1) 
0.32471647886420552

>  <r_i_glide_esite>  (1) 
-0.067362337683857618

>  <r_i_glide_evdw>  (1) 
-41.888057874314271

>  <r_i_glide_gscore>  (1) 
-7.2111633314884713

>  <r_i_glide_gscore_strain>  (1) 
0

>  <r_i_glide_hbond>  (1) 
-0.32000000000000001

>  <r_i_glide_ligand_efficiency>  (1) 
-0.26595409588333624

>  <r_i_glide_ligand_efficiency_ln>  (1) 
-1.6715626809937718

>  <r_i_glide_ligand_efficiency_sa>  (1) 
-0.79786228765000899

>  <r_i_glide_lipo>  (1) 
-2.8312739715999715

>  <r_i_glide_metal>  (1) 
-0

>  <r_i_glide_rewards>  (1) 
-1.2142203036391306

>  <r_lp_Energy>  (1) 
32.143867

>  <r_lp_tautomer_probability>  (1) 
0.99999999999977596

>  <s_epik_cmdline>  (1) 
J2VwaWtfcHl0aG9uJywgJy1waHQnLCAnMS4wJywgJy1waCcsICc3LjQnLCAnLXRuJywgJzgnLCAnLW1hJywgJzUwMCcsICctaW1hZScsICc8aW5maWxlLm1hZT4nLCAnLW9tYWUnLCAnPG91dGZpbGUubWFlPic=

>  <s_epik_input>  (1) 
Q2xbQ0BIXTFbQ0gyXVtDSDJdW0NASF0oQ2wpW0NIMl1bQ0BIXTFbQ0hdKFtDSDJdW0NIMl0yKVtDSDJdW0NIMl1OMmMzc2Mobm4zKS1jNFtjSF1jKFtPSF0pYyhbT0hdKVtjSF1bY0hdNA==

>  <s_glide_docking_method>  (1) 
confgen

>  <s_i_glide_gridfile>  (1) 
gpcr_drd2_6luq_protein_autoprepared_prepared

>  <s_lp_Force_Field>  (1) 
S-OPLS

>  <s_lp_Variant>  (1) 
DiffSBDD_31_num_sample_100-2

>  <s_m_source_file>  (1) 
generated__ligand_DiffSBDD_2026-05-06_prepared.sdf

>  <GenAI_Model>  (1) 
DiffSBDD

>  <Protein>  (1) 
generic_title2

$$$$
DiffSBDD_55_num_sample_100
     RDKit          3D

  0  0  0  0  0  0  0  0  0  0999 V3000
M  V30 BEGIN CTAB
M  V30 COUNTS 51 54 0 0 1
M  V30 BEGIN ATOM
M  V30 1 O 6.739998 4.865131 -12.399169 0
M  V30 2 C 12.234789 9.272630 -3.452354 0
M  V30 3 C 9.828144 7.195650 -9.914350 0
M  V30 4 C 9.434859 8.446137 -7.212634 0
M  V30 5 C 8.745490 4.651560 -10.500794 0 CFG=2
M  V30 6 C 9.041316 5.534472 -11.702354 0 CFG=1
M  V30 7 S 11.834838 6.569302 -3.259806 0
M  V30 8 C 12.234813 8.133991 -2.430629 0
M  V30 9 C 11.834836 8.705655 -4.805702 0
M  V30 10 C 6.511407 5.718470 -14.571398 0
M  V30 11 N 9.034839 6.569301 -8.820780 0 CFG=2 CHG=1
M  V30 12 C 8.052841 5.178604 -12.859910 0 CFG=2
M  V30 13 C 9.106872 7.014175 -11.267693 0 CFG=2
M  V30 14 C 7.834873 6.172873 -14.004226 0
M  V30 15 C 5.758683 5.361003 -13.299536 0
M  V30 16 C 11.576381 6.421225 -6.008264 0
M  V30 17 C 9.478342 6.920253 -7.426708 0 CFG=1
M  V30 18 C 11.216181 7.295512 -4.805276 0 CFG=1
M  V30 19 C 7.497701 4.828307 -9.665964 0
M  V30 20 O 12.001859 9.345505 -5.842592 0
M  V30 21 O 9.834837 7.764945 -12.206145 0
M  V30 22 C 10.833817 6.260457 -7.129552 0
M  V30 23 C 8.839962 5.113473 -9.047627 0 CFG=1
M  V30 24 H 11.532358 10.053503 -3.159391 0
M  V30 25 H 13.223288 9.726582 -3.524838 0
M  V30 26 H 10.837600 6.787775 -9.944813 0
M  V30 27 H 9.931682 8.265198 -9.738476 0
M  V30 28 H 9.347933 8.714269 -6.163723 0
M  V30 29 H 10.312272 8.939431 -7.627516 0
M  V30 30 H 8.573109 8.899120 -7.697307 0
M  V30 31 H 9.034840 3.621602 -10.691662 0
M  V30 32 H 10.044562 5.263690 -12.038091 0
M  V30 33 H 11.486855 8.323163 -1.659857 0
M  V30 34 H 13.199614 8.059375 -1.931659 0
M  V30 35 H 6.647740 4.832018 -15.191817 0
M  V30 36 H 6.010015 6.484155 -15.163761 0
M  V30 37 H 8.411203 4.249164 -13.306427 0
M  V30 38 H 8.103433 7.429791 -11.212637 0
M  V30 39 H 7.721311 7.193212 -13.639373 0
M  V30 40 H 8.634826 6.150708 -14.744524 0
M  V30 41 H 4.967835 4.631001 -13.472601 0
M  V30 42 H 5.311185 6.253521 -12.860531 0
M  V30 43 H 12.509497 5.884920 -5.936554 0
M  V30 44 H 8.743054 6.472238 -6.755562 0
M  V30 45 H 10.136488 7.369323 -4.725836 0
M  V30 46 H 6.986242 3.922640 -9.354238 0
M  V30 47 H 6.840525 5.663127 -9.901177 0
M  V30 48 H 9.375891 7.745126 -13.032459 0
M  V30 49 H 11.211277 5.607672 -7.896113 0
M  V30 50 H 9.223347 4.437007 -8.287140 0
M  V30 51 H 8.106221 7.001377 -8.935657 0
M  V30 END ATOM
M  V30 BEGIN BOND
M  V30 1 1 6 5
M  V30 2 1 8 2
M  V30 3 1 8 7
M  V30 4 1 9 2
M  V30 5 1 11 3
M  V30 6 1 12 1
M  V30 7 1 12 6
M  V30 8 1 13 3
M  V30 9 1 13 6
M  V30 10 1 14 10
M  V30 11 1 14 12
M  V30 12 1 15 1
M  V30 13 1 15 10
M  V30 14 1 17 4
M  V30 15 1 17 11
M  V30 16 1 18 7
M  V30 17 1 18 9
M  V30 18 1 18 16
M  V30 19 1 19 5
M  V30 20 2 20 9
M  V30 21 1 21 13
M  V30 22 2 22 16
M  V30 23 1 22 17
M  V30 24 1 23 5
M  V30 25 1 23 11
M  V30 26 1 23 19
M  V30 27 1 24 2
M  V30 28 1 25 2
M  V30 29 1 26 3
M  V30 30 1 27 3
M  V30 31 1 28 4
M  V30 32 1 29 4
M  V30 33 1 30 4
M  V30 34 1 5 31 CFG=1
M  V30 35 1 6 32 CFG=3
M  V30 36 1 33 8
M  V30 37 1 34 8
M  V30 38 1 35 10
M  V30 39 1 36 10
M  V30 40 1 12 37 CFG=3
M  V30 41 1 13 38 CFG=1
M  V30 42 1 39 14
M  V30 43 1 40 14
M  V30 44 1 41 15
M  V30 45 1 42 15
M  V30 46 1 43 16
M  V30 47 1 17 44 CFG=1
M  V30 48 1 18 45 CFG=1
M  V30 49 1 46 19
M  V30 50 1 47 19
M  V30 51 1 48 21
M  V30 52 1 49 22
M  V30 53 1 23 50 CFG=1
M  V30 54 1 11 51 CFG=3
M  V30 END BOND
M  V30 END CTAB
M  END
>  <i_epik_Tot_Q>  (1) 
1

>  <i_epik_Tot_abs_Q>  (1) 
1

>  <i_i_glide_confnum>  (1) 
54

>  <i_i_glide_lignum>  (1) 
102

>  <i_i_glide_posenum>  (1) 
320

>  <i_i_glide_rotatable_bonds>  (1) 
5

>  <i_lp_mmshare_version>  (1) 
72125

>  <i_m_source_file_index>  (1) 
56

>  <i_f3d_flags>  (1) 
0

>  <num_sample>  (1) 
100

>  <b_lp_Chiralities_Consistent>  (1) 
1

>  <r_epik_Charging_Adjusted_Penalty>  (1) 
0.1887110856522376

>  <r_epik_Ionization_Penalty>  (1) 
0.094355642401006162

>  <r_epik_Ionization_Penalty_Charging>  (1) 
0.094355542826118813

>  <r_epik_Ionization_Penalty_Neutral>  (1) 
9.9574887353862298e-08

>  <r_epik_State_Penalty>  (1) 
0.094355542826118799

>  <r_glide_ring_energy>  (1) 
0.4803492444691968

>  <r_i_docking_score>  (1) 
-7.1547824951096199

>  <r_i_glide_ecoul>  (1) 
-6.7052620719833449

>  <r_i_glide_eff_state_penalty>  (1) 
0.094355542826118799

>  <r_i_glide_einternal>  (1) 
8.1266405484267548

>  <r_i_glide_emodel>  (1) 
-52.352921121238758

>  <r_i_glide_emodel_strain>  (1) 
2.2461919864456519

>  <r_i_glide_energy>  (1) 
-38.082979223014668

>  <r_i_glide_erotb>  (1) 
0.34663592295664913

>  <r_i_glide_esite>  (1) 
-0.10000000000000001

>  <r_i_glide_evdw>  (1) 
-31.377717151031323

>  <r_i_glide_gscore>  (1) 
-7.2491380379357384

>  <r_i_glide_gscore_strain>  (1) 
0

>  <r_i_glide_hbond>  (1) 
-0.18839303772504773

>  <r_i_glide_ligand_efficiency>  (1) 
-0.31107749978737476

>  <r_i_glide_ligand_efficiency_ln>  (1) 
-1.7300912832983146

>  <r_i_glide_ligand_efficiency_sa>  (1) 
-0.88466302982009759

>  <r_i_glide_lipo>  (1) 
-1.9213834411777639

>  <r_i_glide_metal>  (1) 
-0

>  <r_i_glide_rewards>  (1) 
-2.811322313640507

>  <r_lp_Energy>  (1) 
23.901119999999999

>  <r_lp_tautomer_probability>  (1) 
0.99995000000000001

>  <s_epik_cmdline>  (1) 
J2VwaWtfcHl0aG9uJywgJy1waHQnLCAnMS4wJywgJy1waCcsICc3LjQnLCAnLXRuJywgJzgnLCAnLW1hJywgJzUwMCcsICctaW1hZScsICc8aW5maWxlLm1hZT4nLCAnLW9tYWUnLCAnPG91dGZpbGUubWFlPic=

>  <s_epik_input>  (1) 
W0NIMl0xW0NIMl1bQ0gyXU9bQ0BASF0xW0NASF0yW0NASF0oW09IXSlbQ0gyXU4oW0NASF0oW0NASF0yMylbQ0gyXTMpW0NASF0oW0NIM10pL1tDSF09W0NIXVxbQ0BIXTRTW0NIMl1bQ0gyXUM0PU8=

>  <s_glide_docking_method>  (1) 
confgen

>  <s_i_glide_gridfile>  (1) 
gpcr_drd2_6luq_protein_autoprepared_prepared

>  <s_lp_Force_Field>  (1) 
S-OPLS

>  <s_lp_Variant>  (1) 
DiffSBDD_55_num_sample_100-3

>  <s_m_source_file>  (1) 
generated__ligand_DiffSBDD_2026-05-06_prepared.sdf

>  <GenAI_Model>  (1) 
DiffSBDD

>  <Protein>  (1) 
generic_title2

$$$$
DiffSBDD_55_num_sample_100
     RDKit          3D

  0  0  0  0  0  0  0  0  0  0999 V3000
M  V30 BEGIN CTAB
M  V30 COUNTS 51 54 0 0 1
M  V30 BEGIN ATOM
M  V30 1 O 7.943641 3.883280 -13.113826 0
M  V30 2 C 12.928291 8.005860 -3.095909 0
M  V30 3 C 9.859493 7.199304 -9.955626 0
M  V30 4 C 9.434840 8.428404 -7.295674 0
M  V30 5 C 8.712593 4.662597 -10.572996 0 CFG=2
M  V30 6 C 9.137177 5.543894 -11.731748 0 CFG=1
M  V30 7 S 11.835119 9.143597 -5.298196 0
M  V30 8 C 12.633252 9.369297 -3.691256 0
M  V30 9 C 11.834843 7.111049 -3.595502 0
M  V30 10 C 6.176795 5.110066 -14.026961 0
M  V30 11 N 9.034842 6.569330 -8.890558 0 CFG=2 CHG=1
M  V30 12 C 8.328314 5.259087 -13.026376 0 CFG=2
M  V30 13 C 9.168630 7.020857 -11.313891 0 CFG=2
M  V30 14 C 7.017376 6.045442 -13.193218 0
M  V30 15 C 6.556832 3.766586 -13.420441 0
M  V30 16 C 11.508943 6.425408 -6.026890 0
M  V30 17 C 9.437145 6.900108 -7.487771 0 CFG=1
M  V30 18 C 11.210232 7.468941 -4.952502 0 CFG=2
M  V30 19 C 7.434767 4.899913 -9.809711 0
M  V30 20 O 11.437808 6.169303 -2.935240 0
M  V30 21 O 9.834839 7.769195 -12.291666 0
M  V30 22 C 10.743754 6.178177 -7.118323 0
M  V30 23 C 8.764687 5.123693 -9.122400 0 CFG=1
M  V30 24 H 13.834844 7.574928 -3.491596 0
M  V30 25 H 12.990639 8.023152 -2.007238 0
M  V30 26 H 10.866342 6.784649 -9.957873 0
M  V30 27 H 9.960988 8.269017 -9.777012 0
M  V30 28 H 9.237171 8.706087 -6.264154 0
M  V30 29 H 10.366178 8.885504 -7.625927 0
M  V30 30 H 8.635004 8.900625 -7.866169 0
M  V30 31 H 8.996832 3.624516 -10.725089 0
M  V30 32 H 10.165622 5.241888 -11.941492 0
M  V30 33 H 13.541740 9.956135 -3.809959 0
M  V30 34 H 11.957933 9.918108 -3.032651 0
M  V30 35 H 6.482920 5.156920 -15.072701 0
M  V30 36 H 5.108317 5.322210 -13.970358 0
M  V30 37 H 8.959046 5.471089 -13.891417 0
M  V30 38 H 8.162267 7.424592 -11.242863 0
M  V30 39 H 6.518539 6.204655 -12.238495 0
M  V30 40 H 7.165243 7.019160 -13.660826 0
M  V30 41 H 6.357532 2.928670 -14.088751 0
M  V30 42 H 6.004704 3.599082 -12.494402 0
M  V30 43 H 12.405314 5.841276 -5.885134 0
M  V30 44 H 8.651808 6.484487 -6.852276 0
M  V30 45 H 10.136132 7.497571 -4.807672 0
M  V30 46 H 6.861357 4.027605 -9.505715 0
M  V30 47 H 6.830451 5.768946 -10.053754 0
M  V30 48 H 9.553100 8.669784 -12.227092 0
M  V30 49 H 11.059591 5.407586 -7.802391 0
M  V30 50 H 9.056364 4.436729 -8.329638 0
M  V30 51 H 8.118947 7.029989 -9.017494 0
M  V30 END ATOM
M  V30 BEGIN BOND
M  V30 1 1 6 5
M  V30 2 1 8 2
M  V30 3 1 8 7
M  V30 4 1 9 2
M  V30 5 1 11 3
M  V30 6 1 12 1
M  V30 7 1 12 6
M  V30 8 1 13 3
M  V30 9 1 13 6
M  V30 10 1 14 10
M  V30 11 1 14 12
M  V30 12 1 15 1
M  V30 13 1 15 10
M  V30 14 1 17 4
M  V30 15 1 17 11
M  V30 16 1 18 7
M  V30 17 1 18 9
M  V30 18 1 18 16
M  V30 19 1 19 5
M  V30 20 2 20 9
M  V30 21 1 21 13
M  V30 22 2 22 16
M  V30 23 1 22 17
M  V30 24 1 23 5
M  V30 25 1 23 11
M  V30 26 1 23 19
M  V30 27 1 24 2
M  V30 28 1 25 2
M  V30 29 1 26 3
M  V30 30 1 27 3
M  V30 31 1 28 4
M  V30 32 1 29 4
M  V30 33 1 30 4
M  V30 34 1 5 31 CFG=1
M  V30 35 1 6 32 CFG=3
M  V30 36 1 33 8
M  V30 37 1 34 8
M  V30 38 1 35 10
M  V30 39 1 36 10
M  V30 40 1 12 37 CFG=3
M  V30 41 1 13 38 CFG=1
M  V30 42 1 39 14
M  V30 43 1 40 14
M  V30 44 1 41 15
M  V30 45 1 42 15
M  V30 46 1 43 16
M  V30 47 1 17 44 CFG=1
M  V30 48 1 18 45 CFG=1
M  V30 49 1 46 19
M  V30 50 1 47 19
M  V30 51 1 48 21
M  V30 52 1 49 22
M  V30 53 1 23 50 CFG=1
M  V30 54 1 11 51 CFG=3
M  V30 END BOND
M  V30 END CTAB
M  END
>  <i_epik_Tot_Q>  (1) 
1

>  <i_epik_Tot_abs_Q>  (1) 
1

>  <i_i_glide_confnum>  (1) 
47

>  <i_i_glide_lignum>  (1) 
106

>  <i_i_glide_posenum>  (1) 
106

>  <i_i_glide_rotatable_bonds>  (1) 
5

>  <i_lp_mmshare_version>  (1) 
72125

>  <i_m_source_file_index>  (1) 
56

>  <i_f3d_flags>  (1) 
0

>  <num_sample>  (1) 
100

>  <b_lp_Chiralities_Consistent>  (1) 
1

>  <r_epik_Charging_Adjusted_Penalty>  (1) 
0.1887110856522376

>  <r_epik_Ionization_Penalty>  (1) 
0.094355642401006162

>  <r_epik_Ionization_Penalty_Charging>  (1) 
0.094355542826118813

>  <r_epik_Ionization_Penalty_Neutral>  (1) 
9.9574887353862298e-08

>  <r_epik_State_Penalty>  (1) 
0.094355542826118799

>  <r_glide_ring_energy>  (1) 
0.48034924446919847

>  <r_i_docking_score>  (1) 
-7.1534922725010075

>  <r_i_glide_ecoul>  (1) 
-6.2199273616032684

>  <r_i_glide_eff_state_penalty>  (1) 
0.094355542826118799

>  <r_i_glide_einternal>  (1) 
9.2942756968293327

>  <r_i_glide_emodel>  (1) 
-49.464826866938608

>  <r_i_glide_emodel_strain>  (1) 
2.3481771871985728

>  <r_i_glide_energy>  (1) 
-37.267175681150647

>  <r_i_glide_erotb>  (1) 
0.34663592295664913

>  <r_i_glide_esite>  (1) 
-0.10000000000000001

>  <r_i_glide_evdw>  (1) 
-31.047248319547382

>  <r_i_glide_gscore>  (1) 
-7.247847815327126

>  <r_i_glide_gscore_strain>  (1) 
0

>  <r_i_glide_hbond>  (1) 
-0.17482537581841445

>  <r_i_glide_ligand_efficiency>  (1) 
-0.31102140315221771

>  <r_i_glide_ligand_efficiency_ln>  (1) 
-1.7297792957724603

>  <r_i_glide_ligand_efficiency_sa>  (1) 
-0.88450349845169363

>  <r_i_glide_lipo>  (1) 
-1.9999423130586205

>  <r_i_glide_metal>  (1) 
-0

>  <r_i_glide_rewards>  (1) 
-2.8343645291888797

>  <r_lp_Energy>  (1) 
23.659068999999999

>  <r_lp_tautomer_probability>  (1) 
0.99995000000000001

>  <s_epik_cmdline>  (1) 
J2VwaWtfcHl0aG9uJywgJy1waHQnLCAnMS4wJywgJy1waCcsICc3LjQnLCAnLXRuJywgJzgnLCAnLW1hJywgJzUwMCcsICctaW1hZScsICc8aW5maWxlLm1hZT4nLCAnLW9tYWUnLCAnPG91dGZpbGUubWFlPic=

>  <s_epik_input>  (1) 
W0NIMl0xW0NIMl1bQ0gyXU9bQ0BASF0xW0NASF0yW0NASF0oW09IXSlbQ0gyXU4oW0NASF0oW0NASF0yMylbQ0gyXTMpW0NASF0oW0NIM10pL1tDSF09W0NIXVxbQ0BASF00U1tDSDJdW0NIMl1DND1P

>  <s_glide_docking_method>  (1) 
confgen

>  <s_i_glide_gridfile>  (1) 
gpcr_drd2_6luq_protein_autoprepared_prepared

>  <s_lp_Force_Field>  (1) 
S-OPLS

>  <s_lp_Variant>  (1) 
DiffSBDD_55_num_sample_100-7

>  <s_m_source_file>  (1) 
generated__ligand_DiffSBDD_2026-05-06_prepared.sdf

>  <GenAI_Model>  (1) 
DiffSBDD

>  <Protein>  (1) 
generic_title2

$$$$
DiffSBDD_17_num_sample_100
     RDKit          3D

  0  0  0  0  0  0  0  0  0  0999 V3000
M  V30 BEGIN CTAB
M  V30 COUNTS 55 57 0 0 1
M  V30 BEGIN ATOM
M  V30 1 N 7.812054 5.714249 -14.164526 0
M  V30 2 C 9.288056 6.749186 -10.815536 0
M  V30 3 C 12.666014 8.288932 -1.883620 0
M  V30 4 C 11.034824 7.260745 -6.167406 0
M  V30 5 C 11.052267 8.687879 -6.237142 0
M  V30 6 C 5.293650 7.703534 -16.277483 0
M  V30 7 N 12.232893 9.369309 -2.799258 0
M  V30 8 C 5.094292 6.640046 -17.365782 0
M  V30 9 C 11.834838 7.420482 -3.875890 0
M  V30 10 F 6.245832 5.093952 -18.703666 0
M  V30 11 N 9.802068 6.188646 -9.579397 0
M  V30 12 C 7.102793 5.313331 -16.524719 0
M  V30 13 C 6.176690 7.211533 -15.143803 0
M  V30 14 C 11.838282 8.759878 -3.947518 0
M  V30 15 O 7.834841 3.386091 -14.000621 0
M  V30 16 C 8.543692 5.727417 -11.694066 0 CFG=2
M  V30 17 C 6.994659 6.140876 -15.234288 0
M  V30 18 C 7.973295 6.481930 -12.920566 0
M  V30 19 C 10.196984 6.944260 -8.496560 0
M  V30 20 C 7.415728 5.003074 -10.934104 0
M  V30 21 C 11.434839 6.628426 -4.962793 0
M  V30 22 C 12.285078 6.869266 -2.564286 0
M  V30 23 N 8.609217 4.569281 -14.366396 0
M  V30 24 C 11.462048 9.440004 -5.112998 0
M  V30 25 C 6.431244 5.990402 -17.735115 0 CFG=2
M  V30 26 C 10.612893 6.440406 -7.321440 0
M  V30 27 H 10.131582 7.161324 -11.370245 0
M  V30 28 H 8.634842 7.591311 -10.593831 0
M  V30 29 H 12.179676 8.423708 -0.919148 0
M  V30 30 H 13.737732 8.407935 -1.740336 0
M  V30 31 H 10.755216 9.196552 -7.137963 0
M  V30 32 H 4.325728 8.021051 -15.891664 0
M  V30 33 H 5.764513 8.593974 -16.693585 0
M  V30 34 H 12.778239 10.216490 -2.862048 0
M  V30 35 H 4.405430 5.873874 -17.007749 0
M  V30 36 H 4.630708 7.089261 -18.244583 0
M  V30 37 H 8.142647 5.120840 -16.789765 0
M  V30 38 H 6.634844 4.347272 -16.340833 0
M  V30 39 H 6.126923 7.769303 -14.228435 0
M  V30 40 H 8.451461 2.916947 -13.457752 0
M  V30 41 H 9.291269 4.993843 -11.994100 0
M  V30 42 H 8.620884 7.326642 -13.151893 0
M  V30 43 H 7.022379 6.913167 -12.611613 0
M  V30 44 H 10.140788 8.005288 -8.677051 0
M  V30 45 H 6.689490 5.713369 -10.536874 0
M  V30 46 H 6.879429 4.313760 -11.586201 0
M  V30 47 H 7.800235 4.425500 -10.094537 0
M  V30 48 H 11.435274 5.554474 -4.882983 0
M  V30 49 H 11.463370 6.365636 -2.053544 0
M  V30 50 H 13.136277 6.198232 -2.662074 0
M  V30 51 H 8.740424 4.398164 -15.361725 0
M  V30 52 H 11.474905 10.519473 -5.149630 0
M  V30 53 H 7.097821 6.749485 -18.146917 0
M  V30 54 H 10.648231 5.369308 -7.191368 0
M  V30 55 H 9.786644 5.182566 -9.493493 0
M  V30 END ATOM
M  V30 BEGIN BOND
M  V30 1 1 5 4
M  V30 2 1 7 3
M  V30 3 1 8 6
M  V30 4 1 11 2
M  V30 5 1 13 6
M  V30 6 1 14 7
M  V30 7 2 14 9
M  V30 8 1 16 2
M  V30 9 1 17 1
M  V30 10 1 17 12
M  V30 11 2 17 13
M  V30 12 1 18 1
M  V30 13 1 18 16
M  V30 14 1 19 11
M  V30 15 1 20 16
M  V30 16 2 21 4
M  V30 17 1 21 9
M  V30 18 1 22 3
M  V30 19 1 22 9
M  V30 20 1 23 1
M  V30 21 1 23 15
M  V30 22 2 24 5
M  V30 23 1 24 14
M  V30 24 1 25 8
M  V30 25 1 25 10
M  V30 26 1 25 12
M  V30 27 1 26 4
M  V30 28 2 26 19
M  V30 29 1 27 2
M  V30 30 1 28 2
M  V30 31 1 29 3
M  V30 32 1 30 3
M  V30 33 1 31 5
M  V30 34 1 32 6
M  V30 35 1 33 6
M  V30 36 1 34 7
M  V30 37 1 35 8
M  V30 38 1 36 8
M  V30 39 1 37 12
M  V30 40 1 38 12
M  V30 41 1 39 13
M  V30 42 1 40 15
M  V30 43 1 16 41 CFG=3
M  V30 44 1 42 18
M  V30 45 1 43 18
M  V30 46 1 44 19
M  V30 47 1 45 20
M  V30 48 1 46 20
M  V30 49 1 47 20
M  V30 50 1 48 21
M  V30 51 1 49 22
M  V30 52 1 50 22
M  V30 53 1 51 23
M  V30 54 1 52 24
M  V30 55 1 25 53 CFG=3
M  V30 56 1 54 26
M  V30 57 1 55 11
M  V30 END BOND
M  V30 END CTAB
M  END
>  <i_epik_Tot_Q>  (1) 
0

>  <i_epik_Tot_abs_Q>  (1) 
0

>  <i_i_glide_confnum>  (1) 
1

>  <i_i_glide_lignum>  (1) 
29

>  <i_i_glide_posenum>  (1) 
393

>  <i_i_glide_rotatable_bonds>  (1) 
9

>  <i_lp_mmshare_version>  (1) 
72125

>  <i_m_source_file_index>  (1) 
18

>  <i_f3d_flags>  (1) 
0

>  <num_sample>  (1) 
100

>  <b_lp_Chiralities_Consistent>  (1) 
1

>  <r_epik_Charging_Adjusted_Penalty>  (1) 
0

>  <r_epik_Ionization_Penalty>  (1) 
0.026997388265497368

>  <r_epik_Ionization_Penalty_Charging>  (1) 
0

>  <r_epik_Ionization_Penalty_Neutral>  (1) 
0.026997388265497368

>  <r_epik_State_Penalty>  (1) 
-0

>  <r_glide_ring_energy>  (1) 
0

>  <r_i_docking_score>  (1) 
-7.152099473914582

>  <r_i_glide_ecoul>  (1) 
-1.5659272882476234

>  <r_i_glide_eff_state_penalty>  (1) 
-0

>  <r_i_glide_einternal>  (1) 
8.6737234448035281

>  <r_i_glide_emodel>  (1) 
-51.353718996178394

>  <r_i_glide_emodel_strain>  (1) 
0.55555701840053473

>  <r_i_glide_energy>  (1) 
-39.208176235148564

>  <r_i_glide_erotb>  (1) 
0.88558064458011865

>  <r_i_glide_esite>  (1) 
-0.059474105198979381

>  <r_i_glide_evdw>  (1) 
-37.642248946900942

>  <r_i_glide_gscore>  (1) 
-7.152099473914582

>  <r_i_glide_gscore_strain>  (1) 
0

>  <r_i_glide_hbond>  (1) 
-0.11681107906265234

>  <r_i_glide_ligand_efficiency>  (1) 
-0.2750807489967147

>  <r_i_glide_ligand_efficiency_ln>  (1) 
-1.6796470934963337

>  <r_i_glide_ligand_efficiency_sa>  (1) 
-0.81492563739732216

>  <r_i_glide_lipo>  (1) 
-3.6924636649295222

>  <r_i_glide_metal>  (1) 
-0

>  <r_i_glide_rewards>  (1) 
-2.0519297287213552

>  <r_lp_Energy>  (1) 
10.435043

>  <r_lp_tautomer_probability>  (1) 
1

>  <s_epik_Chemistry_Notes>  (1) 
This compound has a N-S or N-O group and may undergo hydrolysis at high or low pH.

>  <s_epik_cmdline>  (1) 
J2VwaWtfcHl0aG9uJywgJy1waHQnLCAnMS4wJywgJy1waCcsICc3LjQnLCAnLXRuJywgJzgnLCAnLW1hJywgJzUwMCcsICctaW1hZScsICc8aW5maWxlLm1hZT4nLCAnLW9tYWUnLCAnPG91dGZpbGUubWFlPic=

>  <s_epik_input>  (1) 
RltDQEhdKFtDSDJdMSlbQ0gyXVtDSDJdW0NIXT1DMU4oW05IXVtPSF0pW0NIMl1bQ0BIXShbQ0gzXSlbQ0gyXVtOSF0vW0NIXT1bQ0hdL2MoW2NIXTIpW2NIXVtjSF1jKGMyMylbTkhdW0NIMl1bQ0gyXTM=

>  <s_glide_docking_method>  (1) 
confgen

>  <s_i_glide_gridfile>  (1) 
gpcr_drd2_6luq_protein_autoprepared_prepared

>  <s_lp_Force_Field>  (1) 
S-OPLS

>  <s_lp_Variant>  (1) 
DiffSBDD_17_num_sample_100-2

>  <s_m_source_file>  (1) 
generated__ligand_DiffSBDD_2026-05-06_prepared.sdf

>  <GenAI_Model>  (1) 
DiffSBDD

>  <Protein>  (1) 
generic_title2

$$$$
DiffSBDD_90_num_sample_100
     RDKit          3D

  0  0  0  0  0  0  0  0  0  0999 V3000
M  V30 BEGIN CTAB
M  V30 COUNTS 61 65 0 0 1
M  V30 BEGIN ATOM
M  V30 1 C 6.209826 4.676108 -18.832589 0
M  V30 2 C 7.257252 4.281487 -15.807396 0
M  V30 3 C 11.244703 9.799250 -5.084198 0
M  V30 4 S 5.436058 5.525049 -20.136156 0
M  V30 5 C 7.440343 5.653411 -13.773412 0
M  V30 6 C 6.388249 6.542478 -15.778674 0
M  V30 7 C 6.785230 6.730064 -14.442039 0
M  V30 8 C 10.742034 9.202304 -6.423684 0
M  V30 9 C 12.563412 7.966488 -3.893026 0
M  V30 10 C 13.691900 9.554951 -5.688854 0
M  V30 11 N 10.352800 7.763416 -6.504059 0 CFG=2 CHG=1
M  V30 12 C 11.354244 6.798357 -5.981252 0
M  V30 13 C 9.010517 5.964807 -9.674194 0
M  V30 14 C 8.680022 3.480975 -12.463571 0
M  V30 15 C 6.651402 5.369870 -16.427833 0
M  V30 16 C 9.977473 7.487295 -7.924784 0
M  V30 17 C 5.160845 6.918735 -19.108154 0
M  V30 18 C 5.631045 7.621755 -16.662470 0
M  V30 19 C 7.889972 5.798792 -12.441871 0
M  V30 20 C 11.600541 6.890328 -4.459716 0
M  V30 21 N 5.659855 6.671226 -17.878993 0 CHG=1
M  V30 22 C 4.482906 8.183830 -19.486650 0
M  V30 23 C 12.615357 9.343847 -4.603361 0 CFG=1
M  V30 24 C 8.234419 3.336866 -13.789741 0
M  V30 25 C 7.644321 4.415104 -14.456513 0
M  V30 26 C 9.034064 4.830493 -10.394029 0
M  V30 27 C 9.485313 6.065752 -8.240981 0
M  V30 28 C 8.531151 4.708881 -11.783606 0
M  V30 29 C 6.225247 5.453551 -17.711034 0
M  V30 30 H 6.592238 3.674750 -18.972147 0
M  V30 31 H 7.425308 3.360121 -16.345237 0
M  V30 32 H 10.573773 9.671995 -4.254540 0
M  V30 33 H 11.289580 10.880230 -5.224758 0
M  V30 34 H 6.601502 7.666563 -13.936351 0
M  V30 35 H 11.455767 9.437263 -7.213795 0
M  V30 36 H 9.840162 9.742062 -6.691301 0
M  V30 37 H 12.276387 8.123602 -2.851877 0
M  V30 38 H 13.567270 7.562390 -3.826119 0
M  V30 39 H 13.539937 8.969988 -6.595595 0
M  V30 40 H 13.679956 10.569858 -6.050878 0
M  V30 41 H 14.695418 9.368727 -5.307970 0
M  V30 42 H 10.953085 5.796289 -6.117706 0
M  V30 43 H 12.234504 6.819766 -6.605760 0
M  V30 44 H 8.634848 6.869037 -10.112054 0
M  V30 45 H 9.151168 2.645099 -11.965340 0
M  V30 46 H 10.832774 7.704240 -8.567043 0
M  V30 47 H 9.190564 8.191728 -8.208374 0
M  V30 48 H 4.601787 7.796585 -16.346593 0
M  V30 49 H 6.204931 8.531618 -16.789450 0
M  V30 50 H 7.746262 6.737914 -11.931335 0
M  V30 51 H 10.636023 6.969301 -3.975044 0
M  V30 52 H 11.963749 5.920558 -4.116738 0
M  V30 53 H 5.161884 9.011706 -19.295837 0
M  V30 54 H 4.235819 8.142247 -20.547772 0
M  V30 55 H 12.896767 10.030577 -3.805276 0
M  V30 56 H 8.367532 2.395085 -14.302125 0
M  V30 57 H 9.438428 3.933370 -9.946391 0
M  V30 58 H 8.636528 5.827575 -7.597287 0
M  V30 59 H 10.251247 5.306012 -8.083213 0
M  V30 60 H 3.570073 8.268399 -18.897850 0
M  V30 61 H 9.515017 7.636864 -5.952171 0
M  V30 END ATOM
M  V30 BEGIN BOND
M  V30 1 1 4 1
M  V30 2 2 7 5
M  V30 3 1 7 6
M  V30 4 1 8 3
M  V30 5 1 11 8
M  V30 6 1 12 11
M  V30 7 1 15 2
M  V30 8 2 15 6
M  V30 9 1 16 11
M  V30 10 1 17 4
M  V30 11 1 18 6
M  V30 12 1 19 5
M  V30 13 1 20 9
M  V30 14 1 20 12
M  V30 15 2 21 17
M  V30 16 1 21 18
M  V30 17 1 22 17
M  V30 18 1 23 3
M  V30 19 1 23 9
M  V30 20 1 23 10
M  V30 21 2 24 14
M  V30 22 2 25 2
M  V30 23 1 25 5
M  V30 24 1 25 24
M  V30 25 2 26 13
M  V30 26 1 27 13
M  V30 27 1 27 16
M  V30 28 1 28 14
M  V30 29 2 28 19
M  V30 30 1 28 26
M  V30 31 2 29 1
M  V30 32 1 29 15
M  V30 33 1 29 21
M  V30 34 1 30 1
M  V30 35 1 31 2
M  V30 36 1 32 3
M  V30 37 1 33 3
M  V30 38 1 34 7
M  V30 39 1 35 8
M  V30 40 1 36 8
M  V30 41 1 37 9
M  V30 42 1 38 9
M  V30 43 1 39 10
M  V30 44 1 40 10
M  V30 45 1 41 10
M  V30 46 1 42 12
M  V30 47 1 43 12
M  V30 48 1 44 13
M  V30 49 1 45 14
M  V30 50 1 46 16
M  V30 51 1 47 16
M  V30 52 1 48 18
M  V30 53 1 49 18
M  V30 54 1 50 19
M  V30 55 1 51 20
M  V30 56 1 52 20
M  V30 57 1 53 22
M  V30 58 1 54 22
M  V30 59 1 23 55 CFG=1
M  V30 60 1 56 24
M  V30 61 1 57 26
M  V30 62 1 58 27
M  V30 63 1 59 27
M  V30 64 1 60 22
M  V30 65 1 11 61 CFG=1
M  V30 END BOND
M  V30 END CTAB
M  END
>  <i_epik_Tot_Q>  (1) 
2

>  <i_epik_Tot_abs_Q>  (1) 
2

>  <i_i_glide_confnum>  (1) 
251

>  <i_i_glide_lignum>  (1) 
181

>  <i_i_glide_posenum>  (1) 
301

>  <i_i_glide_rotatable_bonds>  (1) 
4

>  <i_lp_mmshare_version>  (1) 
72125

>  <i_m_source_file_index>  (1) 
91

>  <i_f3d_flags>  (1) 
0

>  <num_sample>  (1) 
100

>  <b_lp_Chiralities_Consistent>  (1) 
1

>  <r_epik_Charging_Adjusted_Penalty>  (1) 
0.0021252633397680827

>  <r_epik_Ionization_Penalty>  (1) 
0.002125263340211697

>  <r_epik_Ionization_Penalty_Charging>  (1) 
0.0021252633397680827

>  <r_epik_Ionization_Penalty_Neutral>  (1) 
4.4361447992621368e-13

>  <r_epik_State_Penalty>  (1) 
-0

>  <r_glide_ring_energy>  (1) 
0.90927878222881353

>  <r_i_docking_score>  (1) 
-7.1262979740486623

>  <r_i_glide_ecoul>  (1) 
-2.4111866667201545

>  <r_i_glide_eff_state_penalty>  (1) 
-0

>  <r_i_glide_einternal>  (1) 
1.2913280313207736

>  <r_i_glide_emodel>  (1) 
-41.200797636885653

>  <r_i_glide_emodel_strain>  (1) 
1.3426468065655968

>  <r_i_glide_energy>  (1) 
-28.163189717246606

>  <r_i_glide_erotb>  (1) 
0.47996519481946287

>  <r_i_glide_esite>  (1) 
0

>  <r_i_glide_evdw>  (1) 
-25.752003050526451

>  <r_i_glide_gscore>  (1) 
-7.1262979740486623

>  <r_i_glide_gscore_strain>  (1) 
0

>  <r_i_glide_hbond>  (1) 
0

>  <r_i_glide_ligand_efficiency>  (1) 
-0.24573441289822973

>  <r_i_glide_ligand_efficiency_ln>  (1) 
-1.6317415287323762

>  <r_i_glide_ligand_efficiency_sa>  (1) 
-0.75497397139726463

>  <r_i_glide_lipo>  (1) 
-4.0772065029160789

>  <r_i_glide_metal>  (1) 
-0

>  <r_i_glide_rewards>  (1) 
-1.8797785134176996

>  <r_lp_Energy>  (1) 
49.609797999999998

>  <r_lp_tautomer_probability>  (1) 
1

>  <s_epik_cmdline>  (1) 
J2VwaWtfcHl0aG9uJywgJy1waHQnLCAnMS4wJywgJy1waCcsICc3LjQnLCAnLXRuJywgJzgnLCAnLW1hJywgJzUwMCcsICctaW1hZScsICc8aW5maWxlLm1hZT4nLCAnLW9tYWUnLCAnPG91dGZpbGUubWFlPic=

>  <s_epik_input>  (1) 
W0NIMl09QzFTW0NIXT1DMk4xW0NIMl1jKFtjSF0zKWMyW2NIXWMoYzM0KVtjSF1bY0hdYyhbY0hdNClcW0NIXT1bQ0hdXFtDSDJdW0NIMl1ONVtDSDJdW0NIMl1bQ0BIXShbQ0gzXSlbQ0gyXVtDSDJdW0NIMl01

>  <s_glide_docking_method>  (1) 
confgen

>  <s_i_glide_gridfile>  (1) 
gpcr_drd2_6luq_protein_autoprepared_prepared

>  <s_lp_Force_Field>  (1) 
S-OPLS

>  <s_lp_Variant>  (1) 
DiffSBDD_90_num_sample_100-1

>  <s_m_source_file>  (1) 
generated__ligand_DiffSBDD_2026-05-06_prepared.sdf

>  <GenAI_Model>  (1) 
DiffSBDD

>  <Protein>  (1) 
generic_title2

$$$$
DiffSBDD_36_num_sample_100
     RDKit          3D

  0  0  0  0  0  0  0  0  0  0999 V3000
M  V30 BEGIN CTAB
M  V30 COUNTS 102 107 0 0 1
M  V30 BEGIN ATOM
M  V30 1 C 12.373977 6.169505 -1.966364 0
M  V30 2 O 8.270203 6.452532 -12.626254 0
M  V30 3 C 12.202121 8.840159 -7.912065 0
M  V30 4 C 15.488419 -0.217777 -19.287686 0
M  V30 5 C 9.161072 4.036989 -18.204743 0 CFG=1
M  V30 6 O 13.693269 1.262823 -17.563597 0
M  V30 7 C 10.943582 7.315456 -10.060217 0
M  V30 8 C 11.434842 7.688717 -5.334855 0
M  V30 9 C 10.910442 7.181442 -6.672090 0 CFG=1
M  V30 10 C 12.054145 9.056800 -5.348510 0 CFG=1
M  V30 11 C 7.602899 4.324344 -11.912650 0
M  V30 12 C 9.282774 6.571518 -8.218175 0
M  V30 13 C 12.415908 9.719995 -6.686694 0
M  V30 14 C 11.930518 7.277472 -2.891620 0
M  V30 15 S 11.874016 4.084247 -18.615817 0
M  V30 16 C 11.922846 8.563092 -2.403156 0
M  V30 17 C 6.179165 6.887540 -15.204667 0
M  V30 18 C 11.434865 9.769149 -3.087906 0
M  V30 19 C 11.805914 1.351665 -19.078957 0
M  V30 20 C 7.300768 5.475531 -12.877925 0 CFG=2
M  V30 21 O 8.913215 1.557808 -17.877019 0
M  V30 22 C 6.685408 0.209608 -16.208725 0
M  V30 23 C 10.325983 4.895666 -18.634904 0
M  V30 24 C 14.088928 0.158608 -19.709640 0
M  V30 25 C 7.559160 1.458881 -18.298047 0
M  V30 26 C 9.476392 6.699474 -6.706914 0
M  V30 27 O 5.927521 7.689421 -16.364292 0
M  V30 28 C 7.966512 0.086672 -15.374184 0
M  V30 29 C 10.071079 7.750788 -8.859801 0 CFG=2
M  V30 30 C 9.244106 8.969152 -9.270605 0
M  V30 31 S 13.450056 -0.239213 -21.201528 0
M  V30 32 O 7.361731 4.977812 -14.185051 0
M  V30 33 C 6.920535 0.184185 -17.729629 0
M  V30 34 C 7.559765 5.251404 -16.599934 0
M  V30 35 C 10.205907 6.171778 -19.026555 0
M  V30 36 N 10.892752 8.211598 -7.711721 0 CFG=2 CHG=1
M  V30 37 C 8.920331 6.207046 -11.381383 0 CFG=1
M  V30 38 C 9.648973 2.594102 -18.513127 0 CFG=2
M  V30 39 C 13.240588 0.959174 -18.666975 0
M  V30 40 O 5.036837 6.548458 -15.998553 0
M  V30 41 C 8.791175 4.325916 -16.722895 0
M  V30 42 O 10.938966 6.969507 -12.456548 0
M  V30 43 C 11.163387 2.462472 -18.222665 0 CFG=2
M  V30 44 C 11.434828 9.965177 -4.397087 0
M  V30 45 C 11.435222 6.903955 -4.241939 0
M  V30 46 C 7.388303 5.951583 -15.232626 0 CFG=1
M  V30 47 C 8.969591 4.681634 -11.358021 0
M  V30 48 C 10.315781 6.853642 -11.404792 0
M  V30 49 H 12.872232 5.370078 -2.514603 0
M  V30 50 H 13.034856 6.527634 -1.180447 0
M  V30 51 H 11.486233 5.768358 -1.483340 0
M  V30 52 H 12.214587 9.456066 -8.809665 0
M  V30 53 H 12.986416 8.089133 -8.015210 0
M  V30 54 H 15.475851 -0.636534 -18.282850 0
M  V30 55 H 15.916055 -0.966334 -19.956829 0
M  V30 56 H 8.301195 4.245476 -18.843172 0
M  V30 57 H 11.632153 6.569531 -9.687859 0
M  V30 58 H 11.575178 6.376267 -6.992256 0
M  V30 59 H 13.034766 8.969051 -4.880870 0
M  V30 60 H 6.855865 4.333402 -11.119099 0
M  V30 61 H 7.570659 3.356543 -12.414659 0
M  V30 62 H 8.234854 6.534003 -8.463998 0
M  V30 63 H 9.707974 5.619817 -8.535889 0
M  V30 64 H 11.835050 10.636618 -6.796281 0
M  V30 65 H 13.463594 10.019626 -6.639947 0
M  V30 66 H 12.240819 8.691634 -1.377757 0
M  V30 67 H 5.965115 7.410555 -14.276424 0
M  V30 68 H 11.043356 10.559938 -2.477333 0
M  V30 69 H 11.190964 0.452270 -19.026323 0
M  V30 70 H 11.787442 1.687304 -20.114186 0
M  V30 71 H 6.311954 5.887142 -12.676087 0
M  V30 72 H 6.146968 1.115340 -15.928671 0
M  V30 73 H 6.032086 -0.624629 -15.948629 0
M  V30 74 H 6.990794 2.334207 -17.984106 0
M  V30 75 H 7.511279 1.419975 -19.386823 0
M  V30 76 H 8.795198 7.448097 -6.293268 0
M  V30 77 H 9.316554 5.769429 -6.175501 0
M  V30 78 H 7.730879 -0.041696 -14.317868 0
M  V30 79 H 8.559938 -0.773330 -15.687615 0
M  V30 80 H 8.588811 0.977164 -15.462230 0
M  V30 81 H 8.647331 8.830136 -10.173490 0
M  V30 82 H 8.597325 9.312845 -8.463970 0
M  V30 83 H 9.935200 9.769253 -9.491699 0
M  V30 84 H 16.129689 0.663870 -19.296954 0
M  V30 85 H 5.953585 0.048765 -18.215800 0
M  V30 86 H 7.515833 -0.687505 -18.005826 0
M  V30 87 H 7.633848 6.021807 -17.368424 0
M  V30 88 H 6.663818 4.677504 -16.839459 0
M  V30 89 H 9.243873 6.661981 -19.042499 0
M  V30 90 H 11.068643 6.742614 -19.335278 0
M  V30 91 H 8.283118 6.580375 -10.587410 0
M  V30 92 H 9.537413 2.458212 -19.591121 0
M  V30 93 H 8.575410 3.400396 -16.190138 0
M  V30 94 H 9.649556 4.759925 -16.204388 0
M  V30 95 H 11.580226 8.148693 -10.350613 0
M  V30 96 H 11.302483 2.280953 -17.156692 0
M  V30 97 H 11.038133 10.889797 -4.792528 0
M  V30 98 H 11.049372 5.900996 -4.358455 0
M  V30 99 H 8.265267 6.569253 -15.086189 0
M  V30 100 H 9.753189 4.301887 -12.015304 0
M  V30 101 H 9.129011 4.270501 -10.361443 0
M  V30 102 H 10.322148 8.938883 -7.304526 0
M  V30 END ATOM
M  V30 BEGIN BOND
M  V30 1 1 9 8
M  V30 2 1 10 8
M  V30 3 1 13 3
M  V30 4 1 13 10
M  V30 5 1 14 1
M  V30 6 2 16 14
M  V30 7 1 18 16
M  V30 8 1 20 2
M  V30 9 1 20 11
M  V30 10 1 23 5
M  V30 11 1 23 15
M  V30 12 1 24 4
M  V30 13 1 25 21
M  V30 14 1 26 9
M  V30 15 1 26 12
M  V30 16 1 27 17
M  V30 17 1 28 22
M  V30 18 1 29 7 CFG=3
M  V30 19 1 29 12
M  V30 20 1 30 29
M  V30 21 2 31 24
M  V30 22 1 32 20
M  V30 23 1 33 22
M  V30 24 1 33 25
M  V30 25 2 35 23
M  V30 26 1 36 3
M  V30 27 1 36 9
M  V30 28 1 36 29
M  V30 29 1 37 2
M  V30 30 1 38 5
M  V30 31 1 38 21
M  V30 32 2 39 6
M  V30 33 1 39 19
M  V30 34 1 39 24
M  V30 35 1 40 17
M  V30 36 1 40 27
M  V30 37 1 41 5
M  V30 38 1 41 34
M  V30 39 1 43 15
M  V30 40 1 43 19
M  V30 41 1 43 38
M  V30 42 1 44 10
M  V30 43 2 44 18
M  V30 44 2 45 8
M  V30 45 1 45 14
M  V30 46 1 46 17
M  V30 47 1 46 32
M  V30 48 1 46 34
M  V30 49 1 47 11
M  V30 50 1 47 37
M  V30 51 1 48 7
M  V30 52 1 48 37
M  V30 53 2 48 42
M  V30 54 1 49 1
M  V30 55 1 50 1
M  V30 56 1 51 1
M  V30 57 1 52 3
M  V30 58 1 53 3
M  V30 59 1 54 4
M  V30 60 1 55 4
M  V30 61 1 5 56 CFG=3
M  V30 62 1 57 7
M  V30 63 1 9 58 CFG=3
M  V30 64 1 10 59 CFG=1
M  V30 65 1 60 11
M  V30 66 1 61 11
M  V30 67 1 62 12
M  V30 68 1 63 12
M  V30 69 1 64 13
M  V30 70 1 65 13
M  V30 71 1 66 16
M  V30 72 1 67 17
M  V30 73 1 68 18
M  V30 74 1 69 19
M  V30 75 1 70 19
M  V30 76 1 20 71 CFG=1
M  V30 77 1 72 22
M  V30 78 1 73 22
M  V30 79 1 74 25
M  V30 80 1 75 25
M  V30 81 1 76 26
M  V30 82 1 77 26
M  V30 83 1 78 28
M  V30 84 1 79 28
M  V30 85 1 80 28
M  V30 86 1 81 30
M  V30 87 1 82 30
M  V30 88 1 83 30
M  V30 89 1 84 4
M  V30 90 1 85 33
M  V30 91 1 86 33
M  V30 92 1 87 34
M  V30 93 1 88 34
M  V30 94 1 89 35
M  V30 95 1 90 35
M  V30 96 1 37 91 CFG=1
M  V30 97 1 38 92 CFG=3
M  V30 98 1 93 41
M  V30 99 1 94 41
M  V30 100 1 95 7
M  V30 101 1 43 96 CFG=1
M  V30 102 1 97 44
M  V30 103 1 98 45
M  V30 104 1 46 99 CFG=1
M  V30 105 1 100 47
M  V30 106 1 101 47
M  V30 107 1 36 102 CFG=1
M  V30 END BOND
M  V30 END CTAB
M  END
>  <i_epik_Tot_Q>  (1) 
1

>  <i_epik_Tot_abs_Q>  (1) 
1

>  <i_i_glide_confnum>  (1) 
11460

>  <i_i_glide_lignum>  (1) 
66

>  <i_i_glide_posenum>  (1) 
83

>  <i_i_glide_rotatable_bonds>  (1) 
16

>  <i_lp_mmshare_version>  (1) 
72125

>  <i_m_source_file_index>  (1) 
37

>  <i_f3d_flags>  (1) 
0

>  <num_sample>  (1) 
100

>  <b_lp_Chiralities_Consistent>  (1) 
1

>  <r_epik_Charging_Adjusted_Penalty>  (1) 
0.91210119875661555

>  <r_epik_Ionization_Penalty>  (1) 
0.45605060116919061

>  <r_epik_Ionization_Penalty_Charging>  (1) 
0.45605059937830777

>  <r_epik_Ionization_Penalty_Neutral>  (1) 
1.7908828364046034e-09

>  <r_epik_State_Penalty>  (1) 
0.45605059937830777

>  <r_glide_ring_energy>  (1) 
0.9081224923352812

>  <r_i_docking_score>  (1) 
-7.1206814728586929

>  <r_i_glide_ecoul>  (1) 
-2.6947202510052621

>  <r_i_glide_eff_state_penalty>  (1) 
0.45605059937830777

>  <r_i_glide_einternal>  (1) 
18.257257289578568

>  <r_i_glide_emodel>  (1) 
-48.231285638302907

>  <r_i_glide_emodel_strain>  (1) 
2.3756195891665186

>  <r_i_glide_energy>  (1) 
-45.258263140227278

>  <r_i_glide_erotb>  (1) 
0.43548923687221863

>  <r_i_glide_esite>  (1) 
-0.019087425410646092

>  <r_i_glide_evdw>  (1) 
-42.563542889222013

>  <r_i_glide_gscore>  (1) 
-7.5767320722370011

>  <r_i_glide_gscore_strain>  (1) 
0

>  <r_i_glide_hbond>  (1) 
0

>  <r_i_glide_ligand_efficiency>  (1) 
-0.14834753068455611

>  <r_i_glide_ligand_efficiency_ln>  (1) 
-1.4617917546234755

>  <r_i_glide_ligand_efficiency_sa>  (1) 
-0.53913070580540934

>  <r_i_glide_lipo>  (1) 
-3.8282872137163619

>  <r_i_glide_metal>  (1) 
-0

>  <r_i_glide_rewards>  (1) 
-1.6324614878703212

>  <r_lp_Energy>  (1) 
33.757401999999999

>  <r_lp_tautomer_probability>  (1) 
0.99994996000200076

>  <s_epik_Chemistry_Notes>  (1) 
This compound contains an acetal/aminal-like group ( X-CH(R)-Y where X, Y are N, S, or O) that may be acid/base labile, releasing an aldehyde.

>  <s_epik_cmdline>  (1) 
J2VwaWtfcHl0aG9uJywgJy1waHQnLCAnMS4wJywgJy1waCcsICc3LjQnLCAnLXRuJywgJzgnLCAnLW1hJywgJzUwMCcsICctaW1hZScsICc8aW5maWxlLm1hZT4nLCAnLW9tYWUnLCAnPG91dGZpbGUubWFlPic=

>  <s_epik_input>  (1) 
W0NIM11DKFtDSF0xKT1bQ0hdW0NIXT1bQ0hdW0NAQEhdMltDSDJdW0NIMl1OKFtDQEhdM0M9MTIpW0NAXShbQ0gzXSkoW0NIMl1bQ0gyXTMpL1tDSF09QyhbT0hdKS9bQ0BIXShbQ0gyXVtDSDJdNClPW0NASF00T1tDQEhdKFtDSF01T081KVtDSDJdW0NIMl1bQ0BIXTZDKD1bQ0gyXSlTW0NASF0oW0NIMl1DKD1PKUMoPVtDSDJdKVtTSF0pW0NASF02T1tDSDJdW0NIMl1bQ0gyXVtDSDNd

>  <s_glide_docking_method>  (1) 
confgen

>  <s_i_glide_gridfile>  (1) 
gpcr_drd2_6luq_protein_autoprepared_prepared

>  <s_lp_Force_Field>  (1) 
S-OPLS

>  <s_lp_Variant>  (1) 
DiffSBDD_36_num_sample_100-3

>  <s_m_source_file>  (1) 
generated__ligand_DiffSBDD_2026-05-06_prepared.sdf

>  <GenAI_Model>  (1) 
DiffSBDD

>  <Protein>  (1) 
generic_title2

$$$$
DiffSBDD_35_num_sample_100
     RDKit          3D

  0  0  0  0  0  0  0  0  0  0999 V3000
M  V30 BEGIN CTAB
M  V30 COUNTS 57 63 0 0 1
M  V30 BEGIN ATOM
M  V30 1 C 11.268471 8.123863 -9.017758 0
M  V30 2 C 5.434920 7.388469 -15.840173 0
M  V30 3 N 8.162848 5.368492 -12.728949 0
M  V30 4 C 7.705742 4.712495 -17.086013 0
M  V30 5 C 6.481214 5.739195 -18.943491 0
M  V30 6 S 8.870732 3.477825 -16.746677 0
M  V30 7 C 9.811149 6.612108 -10.448235 0
M  V30 8 C 9.095784 2.511629 -20.966574 0
M  V30 9 C 10.125300 7.109442 -6.645942 0
M  V30 10 C 10.272254 7.129540 -9.089892 0
M  V30 11 C 6.110949 6.516741 -16.733400 0
M  V30 12 C 5.761477 5.659335 -11.726533 0
M  V30 13 C 7.273146 5.581995 -14.784093 0
M  V30 14 N 5.871455 6.559477 -18.052108 0
M  V30 15 C 8.236608 3.751174 -19.260710 0
M  V30 16 C 9.063282 2.989140 -18.378911 0
M  V30 17 C 7.040341 5.595953 -16.196813 0
M  V30 18 N 9.905822 1.745902 -20.222436 0
M  V30 19 C 9.883742 1.994490 -18.904326 0
M  V30 20 C 7.432278 4.767119 -18.508681 0
M  V30 21 C 6.945113 6.262812 -12.518317 0 CFG=2
M  V30 22 C 11.119054 8.103008 -6.581290 0
M  V30 23 N 8.052587 5.369312 -9.305965 0 CHG=1
M  V30 24 C 8.666607 4.554354 -11.626998 0
M  V30 25 O 5.034858 6.691898 -11.091714 0
M  V30 26 N 8.262174 3.497580 -20.579891 0
M  V30 27 C 8.218725 4.684998 -14.082094 0
M  V30 28 C 5.683482 7.329943 -14.453287 0
M  V30 29 C 9.116030 5.245867 -10.318954 0 CFG=1
M  V30 30 C 11.691615 8.607590 -7.764704 0
M  V30 31 C 6.613619 6.413694 -13.964045 0
M  V30 32 C 9.698139 6.617793 -7.895043 0
M  V30 33 C 8.622411 5.536556 -7.954129 0
M  V30 34 H 11.707854 8.517018 -9.923294 0
M  V30 35 H 4.715539 8.096419 -16.225370 0
M  V30 36 H 6.218764 5.847972 -19.985372 0
M  V30 37 H 10.651939 6.569142 -11.139049 0
M  V30 38 H 9.123614 7.351541 -10.858495 0
M  V30 39 H 9.115101 2.311023 -22.027555 0
M  V30 40 H 9.689665 6.722709 -5.735781 0
M  V30 41 H 6.089116 4.987946 -10.938622 0
M  V30 42 H 5.106604 5.067767 -12.367606 0
M  V30 43 H 10.523331 1.396097 -18.271920 0
M  V30 44 H 7.255341 7.217058 -12.091774 0
M  V30 45 H 11.444405 8.477983 -5.622654 0
M  V30 46 H 7.535293 6.235565 -9.491411 0
M  V30 47 H 7.947948 3.769525 -11.401670 0
M  V30 48 H 9.543417 4.024117 -12.003090 0
M  V30 49 H 5.631657 7.194297 -10.538011 0
M  V30 50 H 7.838192 3.663531 -14.038027 0
M  V30 51 H 9.237282 4.720957 -14.467569 0
M  V30 52 H 5.148871 7.979612 -13.777528 0
M  V30 53 H 9.834790 4.544577 -9.893136 0
M  V30 54 H 12.454035 9.369256 -7.710956 0
M  V30 55 H 9.056094 4.589079 -7.640150 0
M  V30 56 H 7.834888 5.768940 -7.240622 0
M  V30 57 H 7.421582 4.581895 -9.319555 0
M  V30 END ATOM
M  V30 BEGIN BOND
M  V30 1 1 6 4
M  V30 2 2 10 1
M  V30 3 1 10 7
M  V30 4 1 11 2
M  V30 5 1 14 5
M  V30 6 2 14 11
M  V30 7 1 16 6
M  V30 8 1 16 15
M  V30 9 2 17 4
M  V30 10 1 17 11
M  V30 11 1 17 13
M  V30 12 2 18 8
M  V30 13 2 19 16
M  V30 14 1 19 18
M  V30 15 1 20 4
M  V30 16 2 20 5
M  V30 17 1 20 15
M  V30 18 1 21 3
M  V30 19 1 21 12
M  V30 20 1 22 9
M  V30 21 1 24 3
M  V30 22 1 25 12
M  V30 23 1 26 8
M  V30 24 2 26 15
M  V30 25 1 27 3
M  V30 26 1 27 13
M  V30 27 2 28 2
M  V30 28 1 29 7
M  V30 29 1 29 23
M  V30 30 1 29 24
M  V30 31 1 30 1
M  V30 32 2 30 22
M  V30 33 2 31 13
M  V30 34 1 31 21
M  V30 35 1 31 28
M  V30 36 2 32 9
M  V30 37 1 32 10
M  V30 38 1 33 23
M  V30 39 1 33 32
M  V30 40 1 34 1
M  V30 41 1 35 2
M  V30 42 1 36 5
M  V30 43 1 37 7
M  V30 44 1 38 7
M  V30 45 1 39 8
M  V30 46 1 40 9
M  V30 47 1 41 12
M  V30 48 1 42 12
M  V30 49 1 43 19
M  V30 50 1 21 44 CFG=1
M  V30 51 1 45 22
M  V30 52 1 46 23
M  V30 53 1 47 24
M  V30 54 1 48 24
M  V30 55 1 49 25
M  V30 56 1 50 27
M  V30 57 1 51 27
M  V30 58 1 52 28
M  V30 59 1 29 53 CFG=1
M  V30 60 1 54 30
M  V30 61 1 55 33
M  V30 62 1 56 33
M  V30 63 1 57 23
M  V30 END BOND
M  V30 END CTAB
M  END
>  <i_epik_Tot_Q>  (1) 
1

>  <i_epik_Tot_abs_Q>  (1) 
1

>  <i_i_glide_confnum>  (1) 
98

>  <i_i_glide_lignum>  (1) 
63

>  <i_i_glide_posenum>  (1) 
343

>  <i_i_glide_rotatable_bonds>  (1) 
4

>  <i_lp_mmshare_version>  (1) 
72125

>  <i_m_source_file_index>  (1) 
36

>  <i_f3d_flags>  (1) 
0

>  <num_sample>  (1) 
100

>  <b_lp_Chiralities_Consistent>  (1) 
1

>  <r_epik_Charging_Adjusted_Penalty>  (1) 
0.011867444856994655

>  <r_epik_Ionization_Penalty>  (1) 
0.012232925828486813

>  <r_epik_Ionization_Penalty_Charging>  (1) 
0.011867444856994655

>  <r_epik_Ionization_Penalty_Neutral>  (1) 
0.00036548097149215658

>  <r_epik_State_Penalty>  (1) 
-0

>  <r_glide_ring_energy>  (1) 
1.597824353548408

>  <r_i_docking_score>  (1) 
-7.1045200988294726

>  <r_i_glide_ecoul>  (1) 
-9.4939316595231489

>  <r_i_glide_eff_state_penalty>  (1) 
-0

>  <r_i_glide_einternal>  (1) 
6.5944968115936833

>  <r_i_glide_emodel>  (1) 
-65.739833779103535

>  <r_i_glide_emodel_strain>  (1) 
0.92775531364002006

>  <r_i_glide_energy>  (1) 
-45.004065969421788

>  <r_i_glide_erotb>  (1) 
0.29155208343933364

>  <r_i_glide_esite>  (1) 
-0.10000000000000001

>  <r_i_glide_evdw>  (1) 
-35.510134309898639

>  <r_i_glide_gscore>  (1) 
-7.1045200988294726

>  <r_i_glide_gscore_strain>  (1) 
0

>  <r_i_glide_hbond>  (1) 
-0.35999999999999999

>  <r_i_glide_ligand_efficiency>  (1) 
-0.21528848784331736

>  <r_i_glide_ligand_efficiency_ln>  (1) 
-1.5800084847433065

>  <r_i_glide_ligand_efficiency_sa>  (1) 
-0.69054521561032955

>  <r_i_glide_lipo>  (1) 
-2.5267808087544914

>  <r_i_glide_metal>  (1) 
-0

>  <r_i_glide_rewards>  (1) 
-1.2096949090909104

>  <r_lp_Energy>  (1) 
68.826070000000001

>  <r_lp_tautomer_probability>  (1) 
1

>  <s_epik_cmdline>  (1) 
J2VwaWtfcHl0aG9uJywgJy1waHQnLCAnMS4wJywgJy1waCcsICc3LjQnLCAnLXRuJywgJzgnLCAnLW1hJywgJzUwMCcsICctaW1hZScsICc8aW5maWxlLm1hZT4nLCAnLW9tYWUnLCAnPG91dGZpbGUubWFlPic=

>  <s_epik_input>  (1) 
W2NIXTFbY0hdW2NIXVtjSF1jKGMxMilbQ0gyXVtOSF1bQ0BIXShbQ0gyXTIpW0NIMl1OKFtDQEBIXTNbQ0gyXVtPSF0pW0NIMl1jNGMzW2NIXVtjSF1jKGM0YzU2KW5bY0hdYzZjN2MoczUpW2NIXW5bY0hdbjc=

>  <s_glide_docking_method>  (1) 
confgen

>  <s_i_glide_gridfile>  (1) 
gpcr_drd2_6luq_protein_autoprepared_prepared

>  <s_lp_Force_Field>  (1) 
S-OPLS

>  <s_lp_Variant>  (1) 
DiffSBDD_35_num_sample_100-1

>  <s_m_source_file>  (1) 
generated__ligand_DiffSBDD_2026-05-06_prepared.sdf

>  <GenAI_Model>  (1) 
DiffSBDD

>  <Protein>  (1) 
generic_title2

$$$$
DiffSBDD_55_num_sample_100
     RDKit          3D

  0  0  0  0  0  0  0  0  0  0999 V3000
M  V30 BEGIN CTAB
M  V30 COUNTS 51 54 0 0 1
M  V30 BEGIN ATOM
M  V30 1 O 7.966901 2.630814 -13.180882 0
M  V30 2 C 10.970362 9.350355 -5.794643 0
M  V30 3 C 7.797130 4.867117 -10.982446 0
M  V30 4 C 10.411417 6.169321 -12.291684 0
M  V30 5 C 6.426522 5.512348 -13.458529 0 CFG=2
M  V30 6 C 6.064850 4.211715 -12.753515 0 CFG=1
M  V30 7 S 12.578651 8.569312 -7.890981 0
M  V30 8 C 12.406617 9.422648 -6.276743 0
M  V30 9 C 10.160730 8.569223 -6.816451 0
M  V30 10 C 6.899093 0.568391 -13.597220 0
M  V30 11 N 7.982689 6.253503 -11.493677 0 CFG=1 CHG=1
M  V30 12 C 6.610728 2.938290 -13.467468 0 CFG=2
M  V30 13 C 6.378750 4.329913 -11.256807 0 CFG=2
M  V30 14 C 5.934566 1.618431 -13.091639 0
M  V30 15 C 8.231219 1.315324 -13.667272 0
M  V30 16 C 10.335713 7.860248 -9.262224 0
M  V30 17 C 9.364593 6.821807 -11.361522 0 CFG=1
M  V30 18 C 10.947147 7.807899 -7.872838 0 CFG=1
M  V30 19 C 7.816988 5.733345 -13.999730 0
M  V30 20 O 8.939523 8.552681 -6.784393 0
M  V30 21 O 5.434865 5.211640 -10.691695 0
M  V30 22 C 9.932991 6.775242 -9.946924 0
M  V30 23 C 7.351883 6.562891 -12.824586 0 CFG=1
M  V30 24 H 10.908672 8.860553 -4.823256 0
M  V30 25 H 10.582440 10.359687 -5.679908 0
M  V30 26 H 7.967580 4.859190 -9.905934 0
M  V30 27 H 8.543251 4.200870 -11.410752 0
M  V30 28 H 11.388837 6.632151 -12.148391 0
M  V30 29 H 10.532497 5.108543 -12.075445 0
M  V30 30 H 10.201328 6.246220 -13.350983 0
M  V30 31 H 5.625554 5.897427 -14.086842 0
M  V30 32 H 4.979488 4.131823 -12.839106 0
M  V30 33 H 13.034768 8.969310 -5.521066 0
M  V30 34 H 12.737722 10.460095 -6.300217 0
M  V30 35 H 6.604184 0.215315 -14.586073 0
M  V30 36 H 6.934401 -0.293163 -12.930936 0
M  V30 37 H 6.517569 3.074180 -14.546806 0
M  V30 38 H 6.234432 3.369758 -10.767089 0
M  V30 39 H 5.854352 1.521444 -12.009147 0
M  V30 40 H 4.930785 1.507019 -13.498177 0
M  V30 41 H 8.569404 1.369661 -14.702866 0
M  V30 42 H 9.018233 0.828460 -13.091640 0
M  V30 43 H 10.241727 8.839448 -9.709587 0
M  V30 44 H 9.291265 7.873907 -11.642026 0
M  V30 45 H 11.042960 6.772019 -7.546166 0
M  V30 46 H 7.895339 6.230102 -14.964229 0
M  V30 47 H 8.531849 4.930072 -13.848385 0
M  V30 48 H 5.409674 5.077222 -9.746886 0
M  V30 49 H 10.022897 5.798600 -9.492700 0
M  V30 50 H 7.158519 7.622643 -12.981558 0
M  V30 51 H 7.434738 6.808226 -10.833961 0
M  V30 END ATOM
M  V30 BEGIN BOND
M  V30 1 1 6 5
M  V30 2 1 8 2
M  V30 3 1 8 7
M  V30 4 1 9 2
M  V30 5 1 11 3
M  V30 6 1 12 1
M  V30 7 1 12 6
M  V30 8 1 13 3
M  V30 9 1 13 6
M  V30 10 1 14 10
M  V30 11 1 14 12
M  V30 12 1 15 1
M  V30 13 1 15 10
M  V30 14 1 17 4
M  V30 15 1 17 11
M  V30 16 1 18 7
M  V30 17 1 18 9
M  V30 18 1 18 16
M  V30 19 1 19 5
M  V30 20 2 20 9
M  V30 21 1 21 13
M  V30 22 2 22 16
M  V30 23 1 22 17
M  V30 24 1 23 5
M  V30 25 1 23 11
M  V30 26 1 23 19
M  V30 27 1 24 2
M  V30 28 1 25 2
M  V30 29 1 26 3
M  V30 30 1 27 3
M  V30 31 1 28 4
M  V30 32 1 29 4
M  V30 33 1 30 4
M  V30 34 1 5 31 CFG=3
M  V30 35 1 6 32 CFG=1
M  V30 36 1 33 8
M  V30 37 1 34 8
M  V30 38 1 35 10
M  V30 39 1 36 10
M  V30 40 1 12 37 CFG=3
M  V30 41 1 13 38 CFG=1
M  V30 42 1 39 14
M  V30 43 1 40 14
M  V30 44 1 41 15
M  V30 45 1 42 15
M  V30 46 1 43 16
M  V30 47 1 17 44 CFG=3
M  V30 48 1 18 45 CFG=1
M  V30 49 1 46 19
M  V30 50 1 47 19
M  V30 51 1 48 21
M  V30 52 1 49 22
M  V30 53 1 23 50 CFG=3
M  V30 54 1 11 51 CFG=1
M  V30 END BOND
M  V30 END CTAB
M  END
>  <i_epik_Tot_Q>  (1) 
1

>  <i_epik_Tot_abs_Q>  (1) 
1

>  <i_i_glide_confnum>  (1) 
37

>  <i_i_glide_lignum>  (1) 
101

>  <i_i_glide_posenum>  (1) 
379

>  <i_i_glide_rotatable_bonds>  (1) 
5

>  <i_lp_mmshare_version>  (1) 
72125

>  <i_m_source_file_index>  (1) 
56

>  <i_f3d_flags>  (1) 
0

>  <num_sample>  (1) 
100

>  <b_lp_Chiralities_Consistent>  (1) 
1

>  <r_epik_Charging_Adjusted_Penalty>  (1) 
0.1887110856522376

>  <r_epik_Ionization_Penalty>  (1) 
0.094355642401006162

>  <r_epik_Ionization_Penalty_Charging>  (1) 
0.094355542826118813

>  <r_epik_Ionization_Penalty_Neutral>  (1) 
9.9574887353862298e-08

>  <r_epik_State_Penalty>  (1) 
0.094355542826118799

>  <r_glide_ring_energy>  (1) 
0.48034924446919847

>  <r_i_docking_score>  (1) 
-7.1033274453166264

>  <r_i_glide_ecoul>  (1) 
-6.3753188765974684

>  <r_i_glide_eff_state_penalty>  (1) 
0.094355542826118799

>  <r_i_glide_einternal>  (1) 
5.0996069826095125

>  <r_i_glide_emodel>  (1) 
-52.472282179157418

>  <r_i_glide_emodel_strain>  (1) 
1.9247037215257023

>  <r_i_glide_energy>  (1) 
-39.986835827106901

>  <r_i_glide_erotb>  (1) 
0.49519417565235591

>  <r_i_glide_esite>  (1) 
-0.092184808210212452

>  <r_i_glide_evdw>  (1) 
-33.611516950509433

>  <r_i_glide_gscore>  (1) 
-7.1976829881427449

>  <r_i_glide_gscore_strain>  (1) 
0

>  <r_i_glide_hbond>  (1) 
-0.52000000000000002

>  <r_i_glide_ligand_efficiency>  (1) 
-0.30884032370941855

>  <r_i_glide_ligand_efficiency_ln>  (1) 
-1.7176489856897728

>  <r_i_glide_ligand_efficiency_sa>  (1) 
-0.878300798643884

>  <r_i_glide_lipo>  (1) 
-2.2239125623181377

>  <r_i_glide_metal>  (1) 
-0

>  <r_i_glide_rewards>  (1) 
-2.219906114251657

>  <r_lp_Energy>  (1) 
19.169269

>  <r_lp_tautomer_probability>  (1) 
0.99995000000000001

>  <s_epik_cmdline>  (1) 
J2VwaWtfcHl0aG9uJywgJy1waHQnLCAnMS4wJywgJy1waCcsICc3LjQnLCAnLXRuJywgJzgnLCAnLW1hJywgJzUwMCcsICctaW1hZScsICc8aW5maWxlLm1hZT4nLCAnLW9tYWUnLCAnPG91dGZpbGUubWFlPic=

>  <s_epik_input>  (1) 
W0NIMl0xW0NIMl1bQ0gyXU9bQ0BASF0xW0NASF0yW0NASF0oW09IXSlbQ0gyXU4oW0NASF0oW0NASF0yMylbQ0gyXTMpW0NASF0oW0NIM10pXFtDSF09W0NIXVxbQ0BIXTRTW0NIMl1bQ0gyXUM0PU8=

>  <s_glide_docking_method>  (1) 
confgen

>  <s_i_glide_gridfile>  (1) 
gpcr_drd2_6luq_protein_autoprepared_prepared

>  <s_lp_Force_Field>  (1) 
S-OPLS

>  <s_lp_Variant>  (1) 
DiffSBDD_55_num_sample_100-2

>  <s_m_source_file>  (1) 
generated__ligand_DiffSBDD_2026-05-06_prepared.sdf

>  <GenAI_Model>  (1) 
DiffSBDD

>  <Protein>  (1) 
generic_title2

$$$$
DiffSBDD_40_num_sample_100
     RDKit          3D

  0  0  0  0  0  0  0  0  0  0999 V3000
M  V30 BEGIN CTAB
M  V30 COUNTS 63 67 0 0 1
M  V30 BEGIN ATOM
M  V30 1 F 11.304501 9.770997 -3.958186 0
M  V30 2 C 8.636094 6.298303 -11.358649 0 CFG=2
M  V30 3 O 5.520461 4.169286 -13.285822 0
M  V30 4 C 7.289902 5.932404 -18.190980 0
M  V30 5 C 8.178569 7.420270 -12.291644 0
M  V30 6 C 6.493425 4.479534 -12.601841 0
M  V30 7 C 8.648522 4.829343 -11.792810 0 CFG=1
M  V30 8 C 10.167318 7.174530 -7.997067 0
M  V30 9 C 7.686995 3.004115 -19.585978 0
M  V30 10 F 12.258251 7.881778 -3.529240 0
M  V30 11 O 8.295509 5.092167 -14.172709 0
M  V30 12 C 4.943765 6.424786 -17.441933 0
M  V30 13 F 13.278888 9.369301 -4.715995 0
M  V30 14 O 8.088354 1.092656 -18.127464 0
M  V30 15 C 11.799815 8.700058 -6.991299 0
M  V30 16 N 9.434839 6.643662 -9.115015 0
M  V30 17 N 8.157566 4.770466 -17.859067 0 CFG=2 CHG=1
M  V30 18 C 12.092177 8.824644 -4.458177 0
M  V30 19 C 10.459315 7.236076 -5.577017 0
M  V30 20 C 7.619429 5.317719 -10.758336 0 CFG=2
M  V30 21 C 9.710376 6.827262 -10.429551 0
M  V30 22 C 8.234837 2.759096 -13.289215 0
M  V30 23 C 7.930155 4.256516 -13.067984 0 CFG=2
M  V30 24 O 10.730659 7.369313 -10.850201 0
M  V30 25 C 7.531803 3.458823 -18.149420 0 CFG=2
M  V30 26 C 6.227339 6.187903 -17.125735 0
M  V30 27 C 6.714576 6.167102 -15.683367 0
M  V30 28 C 8.529680 2.380232 -18.496416 0 CFG=2
M  V30 29 C 9.822760 6.715117 -6.713291 0
M  V30 30 C 7.615433 4.947160 -15.416054 0 CFG=1
M  V30 31 C 11.173435 8.170111 -8.141274 0
M  V30 32 C 8.717616 4.852180 -16.486435 0
M  V30 33 N 6.425004 5.023765 -11.419735 0
M  V30 34 C 11.434772 8.237634 -5.706778 0
M  V30 35 H 7.911950 6.822515 -18.291614 0
M  V30 36 H 6.824645 5.782522 -19.166900 0
M  V30 37 H 7.209908 7.209999 -12.740599 0
M  V30 38 H 8.083123 8.362928 -11.749874 0
M  V30 39 H 8.900930 7.554747 -13.091649 0
M  V30 40 H 9.478500 4.229993 -11.421760 0
M  V30 41 H 8.185348 3.670172 -20.287921 0
M  V30 42 H 6.886541 2.401275 -20.011506 0
M  V30 43 H 4.204877 6.607683 -16.675252 0
M  V30 44 H 4.616620 6.439572 -18.471242 0
M  V30 45 H 8.377403 0.898860 -17.247997 0
M  V30 46 H 12.551255 9.465757 -7.092489 0
M  V30 47 H 8.595767 6.128233 -8.890416 0
M  V30 48 H 10.185940 6.875382 -4.599815 0
M  V30 49 H 7.731249 4.906261 -9.757228 0
M  V30 50 H 7.614994 2.118023 -12.663865 0
M  V30 51 H 8.068760 2.442038 -14.317211 0
M  V30 52 H 9.267728 2.526637 -13.038434 0
M  V30 53 H 6.634956 3.210197 -17.589090 0
M  V30 54 H 7.269886 7.082858 -15.491513 0
M  V30 55 H 5.867312 6.179714 -14.997252 0
M  V30 56 H 9.603899 2.554425 -18.455238 0
M  V30 57 H 9.055824 5.962424 -6.599296 0
M  V30 58 H 7.011452 4.040546 -15.443070 0
M  V30 59 H 11.447804 8.550040 -9.106984 0
M  V30 60 H 9.356906 3.990547 -16.292362 0
M  V30 61 H 9.363537 5.729966 -16.425164 0
M  V30 62 H 5.539064 5.233398 -10.982352 0
M  V30 63 H 8.947412 4.831062 -18.486528 0
M  V30 END ATOM
M  V30 BEGIN BOND
M  V30 1 1 2 5 CFG=3
M  V30 2 2 6 3
M  V30 3 1 7 2
M  V30 4 1 16 8
M  V30 5 1 17 4
M  V30 6 1 18 1
M  V30 7 1 18 10
M  V30 8 1 18 13
M  V30 9 1 20 2
M  V30 10 1 20 7
M  V30 11 1 21 2
M  V30 12 1 21 16
M  V30 13 1 23 6
M  V30 14 1 23 7
M  V30 15 1 23 11 CFG=3
M  V30 16 1 23 22
M  V30 17 2 24 21
M  V30 18 1 25 9
M  V30 19 1 25 17
M  V30 20 1 26 4
M  V30 21 2 26 12
M  V30 22 1 27 26
M  V30 23 1 28 9
M  V30 24 1 28 14
M  V30 25 1 28 25
M  V30 26 1 29 8
M  V30 27 2 29 19
M  V30 28 1 30 11
M  V30 29 1 30 27
M  V30 30 2 31 8
M  V30 31 1 31 15
M  V30 32 1 32 17
M  V30 33 1 32 30
M  V30 34 1 33 6
M  V30 35 1 33 20
M  V30 36 2 34 15
M  V30 37 1 34 18
M  V30 38 1 34 19
M  V30 39 1 35 4
M  V30 40 1 36 4
M  V30 41 1 37 5
M  V30 42 1 38 5
M  V30 43 1 39 5
M  V30 44 1 7 40 CFG=1
M  V30 45 1 41 9
M  V30 46 1 42 9
M  V30 47 1 43 12
M  V30 48 1 44 12
M  V30 49 1 45 14
M  V30 50 1 46 15
M  V30 51 1 47 16
M  V30 52 1 48 19
M  V30 53 1 20 49 CFG=1
M  V30 54 1 50 22
M  V30 55 1 51 22
M  V30 56 1 52 22
M  V30 57 1 25 53 CFG=1
M  V30 58 1 54 27
M  V30 59 1 55 27
M  V30 60 1 28 56 CFG=3
M  V30 61 1 57 29
M  V30 62 1 30 58 CFG=1
M  V30 63 1 59 31
M  V30 64 1 60 32
M  V30 65 1 61 32
M  V30 66 1 62 33
M  V30 67 1 17 63 CFG=3
M  V30 END BOND
M  V30 END CTAB
M  END
>  <i_epik_Tot_Q>  (1) 
1

>  <i_epik_Tot_abs_Q>  (1) 
1

>  <i_i_glide_confnum>  (1) 
54

>  <i_i_glide_lignum>  (1) 
71

>  <i_i_glide_posenum>  (1) 
271

>  <i_i_glide_rotatable_bonds>  (1) 
8

>  <i_lp_mmshare_version>  (1) 
72125

>  <i_m_source_file_index>  (1) 
41

>  <i_f3d_flags>  (1) 
0

>  <num_sample>  (1) 
100

>  <b_lp_Chiralities_Consistent>  (1) 
1

>  <r_epik_Charging_Adjusted_Penalty>  (1) 
0.4978346940249993

>  <r_epik_Ionization_Penalty>  (1) 
0.24891983878036394

>  <r_epik_Ionization_Penalty_Charging>  (1) 
0.24891734701249965

>  <r_epik_Ionization_Penalty_Neutral>  (1) 
2.4917678643056738e-06

>  <r_epik_State_Penalty>  (1) 
0.24891734701249965

>  <r_glide_ring_energy>  (1) 
0

>  <r_i_docking_score>  (1) 
-7.0835298745614574

>  <r_i_glide_ecoul>  (1) 
-4.6924305839593385

>  <r_i_glide_eff_state_penalty>  (1) 
0.24891734701249965

>  <r_i_glide_einternal>  (1) 
4.6930618278058951

>  <r_i_glide_emodel>  (1) 
-68.763290964735475

>  <r_i_glide_emodel_strain>  (1) 
1.0002359175603601

>  <r_i_glide_energy>  (1) 
-48.075652655122958

>  <r_i_glide_erotb>  (1) 
0.52699016033767154

>  <r_i_glide_esite>  (1) 
-0.22705364867342703

>  <r_i_glide_evdw>  (1) 
-43.383222071163623

>  <r_i_glide_gscore>  (1) 
-7.3324472215739567

>  <r_i_glide_gscore_strain>  (1) 
0

>  <r_i_glide_hbond>  (1) 
0

>  <r_i_glide_ligand_efficiency>  (1) 
-0.20833911395768992

>  <r_i_glide_ligand_efficiency_ln>  (1) 
-1.5649504355736545

>  <r_i_glide_ligand_efficiency_sa>  (1) 
-0.67493785224502678

>  <r_i_glide_lipo>  (1) 
-2.6592079576973244

>  <r_i_glide_metal>  (1) 
-0

>  <r_i_glide_rewards>  (1) 
-2.1001500843887939

>  <r_lp_Energy>  (1) 
40.196967999999998

>  <s_epik_cmdline>  (1) 
J2VwaWtfcHl0aG9uJywgJy1waHQnLCAnMS4wJywgJy1waCcsICc3LjQnLCAnLXRuJywgJzgnLCAnLW1hJywgJzUwMCcsICctaW1hZScsICc8aW5maWxlLm1hZT4nLCAnLW9tYWUnLCAnPG91dGZpbGUubWFlPic=

>  <s_epik_input>  (1) 
RkMoRikoRiljKFtjSF1bY0hdMSlbY0hdW2NIXWMxW05IXUMoPU8pW0NAXTIoW0NIM10pW0NASF0oW0NASF0yMylbTkhdQyg9TylbQ0BAXTMoW0NIM10pT1tDQEhdKFtDSDJdNClbQ0gyXUMoPVtDSDJdKVtDSDJdTjRbQ0BIXTVbQ0gyXVtDQEBIXTVbT0hd

>  <s_glide_docking_method>  (1) 
confgen

>  <s_i_glide_gridfile>  (1) 
gpcr_drd2_6luq_protein_autoprepared_prepared

>  <s_lp_Force_Field>  (1) 
S-OPLS

>  <s_lp_Variant>  (1) 
DiffSBDD_40_num_sample_100-2

>  <s_m_source_file>  (1) 
generated__ligand_DiffSBDD_2026-05-06_prepared.sdf

>  <GenAI_Model>  (1) 
DiffSBDD

>  <Protein>  (1) 
generic_title2

$$$$
DiffSBDD_40_num_sample_100
     RDKit          3D

  0  0  0  0  0  0  0  0  0  0999 V3000
M  V30 BEGIN CTAB
M  V30 COUNTS 63 67 0 0 1
M  V30 BEGIN ATOM
M  V30 1 F 11.091991 9.989106 -4.413918 0
M  V30 2 C 8.480735 5.967193 -11.484295 0 CFG=2
M  V30 3 O 5.261581 3.814888 -13.119792 0
M  V30 4 C 7.317302 4.441474 -18.400883 0
M  V30 5 C 7.943726 7.037823 -12.439636 0
M  V30 6 C 6.279463 4.122350 -12.508627 0
M  V30 7 C 8.487746 4.473746 -11.850930 0 CFG=1
M  V30 8 C 10.099532 7.056709 -8.236172 0
M  V30 9 C 7.436868 0.693605 -18.000868 0
M  V30 10 F 12.282667 8.260152 -3.899280 0
M  V30 11 O 8.020949 4.575928 -14.221989 0
M  V30 12 C 5.575771 6.208695 -18.010907 0
M  V30 13 F 13.068099 9.769299 -5.255708 0
M  V30 14 O 7.379714 0.779412 -20.440296 0
M  V30 15 C 10.460690 7.293855 -5.834059 0
M  V30 16 N 9.374736 6.410223 -9.295219 0
M  V30 17 N 7.420700 3.172091 -17.638128 0 CFG=1 CHG=1
M  V30 18 C 11.969451 9.105226 -4.885969 0
M  V30 19 C 11.613346 8.778164 -7.386557 0
M  V30 20 C 7.523350 5.008138 -10.777080 0 CFG=2
M  V30 21 C 9.563463 6.580261 -10.629558 0
M  V30 22 C 7.890642 2.311837 -13.191311 0
M  V30 23 C 7.684363 3.832121 -13.043680 0 CFG=2
M  V30 24 O 10.519648 7.180600 -11.119866 0
M  V30 25 C 7.943693 2.051379 -18.446425 0 CFG=2
M  V30 26 C 6.615742 5.491585 -17.550578 0
M  V30 27 C 7.162776 5.670782 -16.143692 0
M  V30 28 C 6.875343 1.338809 -19.247719 0 CFG=2
M  V30 29 C 11.003346 8.126778 -8.474420 0
M  V30 30 C 7.341783 4.316240 -15.444902 0 CFG=1
M  V30 31 C 9.839967 6.645352 -6.914913 0
M  V30 32 C 8.143957 3.361689 -16.356240 0
M  V30 33 N 6.292297 4.715891 -11.350179 0
M  V30 34 C 11.337838 8.370020 -6.064161 0
M  V30 35 H 8.310120 4.797678 -18.679037 0
M  V30 36 H 6.763143 4.276388 -19.326671 0
M  V30 37 H 6.924962 6.832665 -12.762902 0
M  V30 38 H 7.926965 8.026526 -11.973153 0
M  V30 39 H 8.569888 7.079925 -13.327170 0
M  V30 40 H 9.347826 3.901578 -11.509523 0
M  V30 41 H 6.785582 0.646408 -17.129773 0
M  V30 42 H 8.100835 -0.160198 -18.123143 0
M  V30 43 H 5.089374 6.947137 -17.389168 0
M  V30 44 H 5.199091 6.066017 -19.013742 0
M  V30 45 H 6.958198 1.191084 -21.181201 0
M  V30 46 H 10.244793 6.976733 -4.823355 0
M  V30 47 H 8.593844 5.836689 -9.010777 0
M  V30 48 H 12.272855 9.603849 -7.563259 0
M  V30 49 H 7.690242 4.634112 -9.769986 0
M  V30 50 H 7.602129 1.776150 -12.292791 0
M  V30 51 H 7.275351 1.898764 -13.989175 0
M  V30 52 H 8.929866 2.056326 -13.384397 0
M  V30 53 H 8.957608 2.161596 -18.829154 0
M  V30 54 H 8.131526 6.162696 -16.206123 0
M  V30 55 H 6.513823 6.320647 -15.554600 0
M  V30 56 H 5.835120 1.662698 -19.266496 0
M  V30 57 H 11.207260 8.475835 -9.468080 0
M  V30 58 H 6.356363 3.893847 -15.274485 0
M  V30 59 H 9.146760 5.838926 -6.727842 0
M  V30 60 H 8.285087 2.392679 -15.882138 0
M  V30 61 H 9.141256 3.761781 -16.546734 0
M  V30 62 H 5.440052 4.970451 -10.873797 0
M  V30 63 H 6.476302 2.910173 -17.391104 0
M  V30 END ATOM
M  V30 BEGIN BOND
M  V30 1 1 2 5 CFG=3
M  V30 2 2 6 3
M  V30 3 1 7 2
M  V30 4 1 16 8
M  V30 5 1 17 4
M  V30 6 1 18 1
M  V30 7 1 18 10
M  V30 8 1 18 13
M  V30 9 1 20 2
M  V30 10 1 20 7
M  V30 11 1 21 2
M  V30 12 1 21 16
M  V30 13 1 23 6
M  V30 14 1 23 7
M  V30 15 1 23 11 CFG=3
M  V30 16 1 23 22
M  V30 17 2 24 21
M  V30 18 1 25 9
M  V30 19 1 25 17
M  V30 20 1 26 4
M  V30 21 2 26 12
M  V30 22 1 27 26
M  V30 23 1 28 9
M  V30 24 1 28 14
M  V30 25 1 28 25
M  V30 26 1 29 8
M  V30 27 2 29 19
M  V30 28 1 30 11
M  V30 29 1 30 27
M  V30 30 2 31 8
M  V30 31 1 31 15
M  V30 32 1 32 17
M  V30 33 1 32 30
M  V30 34 1 33 6
M  V30 35 1 33 20
M  V30 36 2 34 15
M  V30 37 1 34 18
M  V30 38 1 34 19
M  V30 39 1 35 4
M  V30 40 1 36 4
M  V30 41 1 37 5
M  V30 42 1 38 5
M  V30 43 1 39 5
M  V30 44 1 7 40 CFG=1
M  V30 45 1 41 9
M  V30 46 1 42 9
M  V30 47 1 43 12
M  V30 48 1 44 12
M  V30 49 1 45 14
M  V30 50 1 46 15
M  V30 51 1 47 16
M  V30 52 1 48 19
M  V30 53 1 20 49 CFG=1
M  V30 54 1 50 22
M  V30 55 1 51 22
M  V30 56 1 52 22
M  V30 57 1 25 53 CFG=3
M  V30 58 1 54 27
M  V30 59 1 55 27
M  V30 60 1 28 56 CFG=3
M  V30 61 1 57 29
M  V30 62 1 30 58 CFG=1
M  V30 63 1 59 31
M  V30 64 1 60 32
M  V30 65 1 61 32
M  V30 66 1 62 33
M  V30 67 1 17 63 CFG=1
M  V30 END BOND
M  V30 END CTAB
M  END
>  <i_epik_Tot_Q>  (1) 
1

>  <i_epik_Tot_abs_Q>  (1) 
1

>  <i_i_glide_confnum>  (1) 
66

>  <i_i_glide_lignum>  (1) 
70

>  <i_i_glide_posenum>  (1) 
236

>  <i_i_glide_rotatable_bonds>  (1) 
8

>  <i_lp_mmshare_version>  (1) 
72125

>  <i_m_source_file_index>  (1) 
41

>  <i_f3d_flags>  (1) 
0

>  <num_sample>  (1) 
100

>  <b_lp_Chiralities_Consistent>  (1) 
1

>  <r_epik_Charging_Adjusted_Penalty>  (1) 
0.4978346940249993

>  <r_epik_Ionization_Penalty>  (1) 
0.24891983878036394

>  <r_epik_Ionization_Penalty_Charging>  (1) 
0.24891734701249965

>  <r_epik_Ionization_Penalty_Neutral>  (1) 
2.4917678643056738e-06

>  <r_epik_State_Penalty>  (1) 
0.24891734701249965

>  <r_glide_ring_energy>  (1) 
0

>  <r_i_docking_score>  (1) 
-7.0819445830488572

>  <r_i_glide_ecoul>  (1) 
-4.7046968020654303

>  <r_i_glide_eff_state_penalty>  (1) 
0.24891734701249965

>  <r_i_glide_einternal>  (1) 
4.5845330501357147

>  <r_i_glide_emodel>  (1) 
-68.164095640061291

>  <r_i_glide_emodel_strain>  (1) 
1.1770487644282923

>  <r_i_glide_energy>  (1) 
-47.608495337949705

>  <r_i_glide_erotb>  (1) 
0.52699016033767154

>  <r_i_glide_esite>  (1) 
-0.20460894843897295

>  <r_i_glide_evdw>  (1) 
-42.903798535884277

>  <r_i_glide_gscore>  (1) 
-7.3308619300613564

>  <r_i_glide_gscore_strain>  (1) 
0

>  <r_i_glide_hbond>  (1) 
0

>  <r_i_glide_ligand_efficiency>  (1) 
-0.20829248773673109

>  <r_i_glide_ligand_efficiency_ln>  (1) 
-1.5646002002126003

>  <r_i_glide_ligand_efficiency_sa>  (1) 
-0.67478680138935965

>  <r_i_glide_lipo>  (1) 
-2.4465817145719813

>  <r_i_glide_metal>  (1) 
-0

>  <r_i_glide_rewards>  (1) 
-2.3557669802840455

>  <r_lp_Energy>  (1) 
40.321003999999995

>  <s_epik_cmdline>  (1) 
J2VwaWtfcHl0aG9uJywgJy1waHQnLCAnMS4wJywgJy1waCcsICc3LjQnLCAnLXRuJywgJzgnLCAnLW1hJywgJzUwMCcsICctaW1hZScsICc8aW5maWxlLm1hZT4nLCAnLW9tYWUnLCAnPG91dGZpbGUubWFlPic=

>  <s_epik_input>  (1) 
RkMoRikoRiljKFtjSF1bY0hdMSlbY0hdW2NIXWMxW05IXUMoPU8pW0NAXTIoW0NIM10pW0NASF0oW0NASF0yMylbTkhdQyg9TylbQ0BAXTMoW0NIM10pT1tDQEhdKFtDSDJdNClbQ0gyXUMoPVtDSDJdKVtDSDJdTjRbQ0BIXTVbQ0gyXVtDQEBIXTVbT0hd

>  <s_glide_docking_method>  (1) 
confgen

>  <s_i_glide_gridfile>  (1) 
gpcr_drd2_6luq_protein_autoprepared_prepared

>  <s_lp_Force_Field>  (1) 
S-OPLS

>  <s_lp_Variant>  (1) 
DiffSBDD_40_num_sample_100-1

>  <s_m_source_file>  (1) 
generated__ligand_DiffSBDD_2026-05-06_prepared.sdf

>  <GenAI_Model>  (1) 
DiffSBDD

>  <Protein>  (1) 
generic_title2

$$$$
DiffSBDD_55_num_sample_100
     RDKit          3D

  0  0  0  0  0  0  0  0  0  0999 V3000
M  V30 BEGIN CTAB
M  V30 COUNTS 51 54 0 0 1
M  V30 BEGIN ATOM
M  V30 1 O 6.657693 4.168975 -11.653042 0
M  V30 2 C 12.403915 8.943868 -3.464395 0
M  V30 3 C 9.274194 7.623556 -11.299336 0
M  V30 4 C 11.794157 8.347660 -9.635854 0
M  V30 5 C 9.289029 4.922852 -10.341618 0 CFG=2
M  V30 6 C 8.855512 5.205632 -11.774274 0 CFG=1
M  V30 7 S 11.434839 6.569300 -4.480175 0
M  V30 8 C 12.231055 7.458367 -3.102424 0
M  V30 9 C 11.559697 9.235169 -4.691558 0
M  V30 10 C 6.234679 3.821040 -13.891679 0
M  V30 11 N 9.434842 7.425026 -9.836965 0 CFG=2 CHG=1
M  V30 12 C 7.943789 4.064038 -12.260088 0 CFG=2
M  V30 13 C 8.258649 6.625990 -11.872052 0 CFG=2
M  V30 14 C 7.733039 3.949725 -13.772926 0
M  V30 15 C 5.705049 4.506586 -12.643326 0
M  V30 16 C 11.076181 8.058982 -6.817878 0
M  V30 17 C 10.312593 8.436273 -9.197473 0 CFG=1
M  V30 18 C 10.870455 8.049762 -5.332621 0 CFG=1
M  V30 19 C 8.471210 5.242948 -9.111053 0
M  V30 20 O 11.434854 10.373059 -5.136162 0
M  V30 21 O 7.941155 7.015470 -13.187970 0
M  V30 22 C 10.121227 8.406347 -7.695409 0
M  V30 23 C 9.731027 6.030126 -9.409195 0 CFG=1
M  V30 24 H 12.121095 9.594811 -2.637119 0
M  V30 25 H 13.434836 9.163350 -3.716714 0
M  V30 26 H 10.229139 7.520309 -11.815907 0
M  V30 27 H 8.922269 8.641582 -11.472711 0
M  V30 28 H 12.399568 9.091218 -9.115231 0
M  V30 29 H 12.233317 7.369231 -9.443252 0
M  V30 30 H 11.917986 8.557162 -10.691660 0
M  V30 31 H 9.834836 3.986324 -10.259200 0
M  V30 32 H 9.763875 5.174194 -12.377954 0
M  V30 33 H 11.592752 7.364974 -2.223403 0
M  V30 34 H 13.183478 6.988992 -2.858313 0
M  V30 35 H 5.956712 2.766781 -13.878718 0
M  V30 36 H 5.839654 4.272451 -14.800710 0
M  V30 37 H 8.378676 3.120022 -11.931134 0
M  V30 38 H 7.324428 6.669684 -11.313231 0
M  V30 39 H 8.096431 4.819852 -14.315277 0
M  V30 40 H 8.234984 3.079258 -14.193887 0
M  V30 41 H 4.706124 4.169272 -12.368056 0
M  V30 42 H 5.671535 5.587573 -12.775894 0
M  V30 43 H 12.055153 7.770812 -7.168084 0
M  V30 44 H 9.938874 9.412183 -9.491650 0
M  V30 45 H 9.810487 8.154249 -5.137405 0
M  V30 46 H 8.514530 4.542975 -8.280526 0
M  V30 47 H 7.501167 5.712804 -9.251441 0
M  V30 48 H 7.376714 7.773428 -13.155401 0
M  V30 49 H 9.142908 8.690675 -7.330409 0
M  V30 50 H 10.588702 5.885315 -8.755496 0
M  V30 51 H 8.482401 7.610705 -9.491654 0
M  V30 END ATOM
M  V30 BEGIN BOND
M  V30 1 1 6 5
M  V30 2 1 8 2
M  V30 3 1 8 7
M  V30 4 1 9 2
M  V30 5 1 11 3
M  V30 6 1 12 1
M  V30 7 1 12 6
M  V30 8 1 13 3
M  V30 9 1 13 6
M  V30 10 1 14 10
M  V30 11 1 14 12
M  V30 12 1 15 1
M  V30 13 1 15 10
M  V30 14 1 17 4
M  V30 15 1 17 11
M  V30 16 1 18 7
M  V30 17 1 18 9
M  V30 18 1 18 16
M  V30 19 1 19 5
M  V30 20 2 20 9
M  V30 21 1 21 13
M  V30 22 2 22 16
M  V30 23 1 22 17
M  V30 24 1 23 5
M  V30 25 1 23 11
M  V30 26 1 23 19
M  V30 27 1 24 2
M  V30 28 1 25 2
M  V30 29 1 26 3
M  V30 30 1 27 3
M  V30 31 1 28 4
M  V30 32 1 29 4
M  V30 33 1 30 4
M  V30 34 1 5 31 CFG=3
M  V30 35 1 6 32 CFG=3
M  V30 36 1 33 8
M  V30 37 1 34 8
M  V30 38 1 35 10
M  V30 39 1 36 10
M  V30 40 1 12 37 CFG=1
M  V30 41 1 13 38 CFG=1
M  V30 42 1 39 14
M  V30 43 1 40 14
M  V30 44 1 41 15
M  V30 45 1 42 15
M  V30 46 1 43 16
M  V30 47 1 17 44 CFG=3
M  V30 48 1 18 45 CFG=3
M  V30 49 1 46 19
M  V30 50 1 47 19
M  V30 51 1 48 21
M  V30 52 1 49 22
M  V30 53 1 23 50 CFG=1
M  V30 54 1 11 51 CFG=1
M  V30 END BOND
M  V30 END CTAB
M  END
>  <i_epik_Tot_Q>  (1) 
1

>  <i_epik_Tot_abs_Q>  (1) 
1

>  <i_i_glide_confnum>  (1) 
65

>  <i_i_glide_lignum>  (1) 
100

>  <i_i_glide_posenum>  (1) 
342

>  <i_i_glide_rotatable_bonds>  (1) 
5

>  <i_lp_mmshare_version>  (1) 
72125

>  <i_m_source_file_index>  (1) 
56

>  <i_f3d_flags>  (1) 
0

>  <num_sample>  (1) 
100

>  <b_lp_Chiralities_Consistent>  (1) 
1

>  <r_epik_Charging_Adjusted_Penalty>  (1) 
0.1887110856522376

>  <r_epik_Ionization_Penalty>  (1) 
0.094355642401006162

>  <r_epik_Ionization_Penalty_Charging>  (1) 
0.094355542826118813

>  <r_epik_Ionization_Penalty_Neutral>  (1) 
9.9574887353862298e-08

>  <r_epik_State_Penalty>  (1) 
0.094355542826118799

>  <r_glide_ring_energy>  (1) 
0.48034924446920019

>  <r_i_docking_score>  (1) 
-7.0783298991122559

>  <r_i_glide_ecoul>  (1) 
-5.5178330301665763

>  <r_i_glide_eff_state_penalty>  (1) 
0.094355542826118799

>  <r_i_glide_einternal>  (1) 
5.1272802692805399

>  <r_i_glide_emodel>  (1) 
-59.093558752279897

>  <r_i_glide_emodel_strain>  (1) 
0.28409707067925893

>  <r_i_glide_energy>  (1) 
-40.872999100484321

>  <r_i_glide_erotb>  (1) 
0.49519417565235591

>  <r_i_glide_esite>  (1) 
-0.10000000000000001

>  <r_i_glide_evdw>  (1) 
-35.355166070317743

>  <r_i_glide_gscore>  (1) 
-7.1726854419383743

>  <r_i_glide_gscore_strain>  (1) 
0

>  <r_i_glide_hbond>  (1) 
-0.20000000000000001

>  <r_i_glide_ligand_efficiency>  (1) 
-0.3077534738744459

>  <r_i_glide_ligand_efficiency_ln>  (1) 
-1.711604352352339

>  <r_i_glide_ligand_efficiency_sa>  (1) 
-0.87520994228614823

>  <r_i_glide_lipo>  (1) 
-2.3212606322771268

>  <r_i_glide_metal>  (1) 
-0

>  <r_i_glide_rewards>  (1) 
-2.4511857272727284

>  <r_lp_Energy>  (1) 
19.402072999999998

>  <r_lp_tautomer_probability>  (1) 
0.99995000000000001

>  <s_epik_cmdline>  (1) 
J2VwaWtfcHl0aG9uJywgJy1waHQnLCAnMS4wJywgJy1waCcsICc3LjQnLCAnLXRuJywgJzgnLCAnLW1hJywgJzUwMCcsICctaW1hZScsICc8aW5maWxlLm1hZT4nLCAnLW9tYWUnLCAnPG91dGZpbGUubWFlPic=

>  <s_epik_input>  (1) 
W0NIMl0xW0NIMl1bQ0gyXU9bQ0BASF0xW0NASF0yW0NASF0oW09IXSlbQ0gyXU4oW0NASF0oW0NASF0yMylbQ0gyXTMpW0NASF0oW0NIM10pXFtDSF09W0NIXVxbQ0BIXTRTW0NIMl1bQ0gyXUM0PU8=

>  <s_glide_docking_method>  (1) 
confgen

>  <s_i_glide_gridfile>  (1) 
gpcr_drd2_6luq_protein_autoprepared_prepared

>  <s_lp_Force_Field>  (1) 
S-OPLS

>  <s_lp_Variant>  (1) 
DiffSBDD_55_num_sample_100-1

>  <s_m_source_file>  (1) 
generated__ligand_DiffSBDD_2026-05-06_prepared.sdf

>  <GenAI_Model>  (1) 
DiffSBDD

>  <Protein>  (1) 
generic_title2

$$$$
DiffSBDD_48_num_sample_100
     RDKit          3D

  0  0  0  0  0  0  0  0  0  0999 V3000
M  V30 BEGIN CTAB
M  V30 COUNTS 51 53 0 0 1
M  V30 BEGIN ATOM
M  V30 1 O 12.634849 7.249911 -1.777942 0
M  V30 2 O 6.948600 6.572423 -14.775599 0
M  V30 3 C 10.648315 6.468419 -6.250923 0
M  V30 4 C 5.942858 6.278702 -13.830184 0
M  V30 5 C 7.672606 5.507274 -12.105083 0
M  V30 6 N 10.650206 7.552440 -7.332053 0
M  V30 7 C 6.490219 6.441505 -12.397680 0 CFG=2
M  V30 8 N 9.715079 7.422771 -8.377205 0
M  V30 9 C 11.829603 9.527714 -4.566165 0
M  V30 10 C 5.359779 6.222425 -11.374532 0
M  V30 11 C 9.458951 6.527195 -10.681032 0
M  V30 12 C 12.827364 5.858338 -1.576383 0
M  V30 13 C 8.396810 4.569358 -9.937181 0
M  V30 14 C 12.204051 7.690354 -3.000053 0
M  V30 15 C 11.309338 8.604490 -5.476261 0
M  V30 16 C 12.281528 9.069120 -3.311464 0
M  V30 17 C 9.309701 4.987957 -8.794130 0
M  V30 18 C 9.971247 6.294346 -9.259965 0 CFG=2
M  V30 19 O 6.957208 7.769246 -12.291690 0
M  V30 20 N 8.202704 5.769476 -10.747412 0 CFG=2 CHG=1
M  V30 21 C 11.226976 7.297302 -5.185092 0
M  V30 22 C 11.663591 6.790641 -3.955942 0
M  V30 23 C 10.807144 8.968763 -6.804435 0
M  V30 24 H 7.311294 7.415292 -14.539096 0
M  V30 25 H 9.634047 6.167030 -5.988243 0
M  V30 26 H 11.272928 5.621079 -6.532318 0
M  V30 27 H 5.106036 6.957368 -13.995254 0
M  V30 28 H 5.575192 5.265326 -13.998863 0
M  V30 29 H 7.321421 4.476633 -12.179492 0
M  V30 30 H 8.463542 5.609364 -12.850374 0
M  V30 31 H 8.763199 7.402223 -8.009122 0
M  V30 32 H 11.878945 10.570360 -4.819051 0
M  V30 33 H 4.841388 5.282556 -11.556241 0
M  V30 34 H 5.699229 6.169498 -10.341081 0
M  V30 35 H 4.634990 7.032329 -11.428044 0
M  V30 36 H 10.173845 6.125528 -11.401340 0
M  V30 37 H 9.311134 7.583345 -10.911398 0
M  V30 38 H 13.434792 5.688012 -0.691682 0
M  V30 39 H 11.866065 5.369321 -1.439531 0
M  V30 40 H 13.369026 5.382918 -2.387533 0
M  V30 41 H 7.440823 4.171589 -9.589012 0
M  V30 42 H 8.897074 3.812964 -10.547647 0
M  V30 43 H 12.682136 9.765894 -2.591237 0
M  V30 44 H 8.720856 5.134994 -7.887656 0
M  V30 45 H 10.048718 4.214009 -8.592171 0
M  V30 46 H 11.043185 6.171179 -9.300569 0
M  V30 47 H 7.020778 7.998977 -11.366108 0
M  V30 48 H 11.582109 5.739605 -3.744831 0
M  V30 49 H 11.504298 9.550181 -7.407103 0
M  V30 50 H 9.834948 9.443690 -6.705464 0
M  V30 51 H 7.527773 6.349696 -10.249313 0
M  V30 END ATOM
M  V30 BEGIN BOND
M  V30 1 1 4 2
M  V30 2 1 6 3
M  V30 3 1 7 4
M  V30 4 1 7 5
M  V30 5 1 8 6
M  V30 6 1 10 7
M  V30 7 1 12 1
M  V30 8 1 14 1
M  V30 9 1 15 9
M  V30 10 2 16 9
M  V30 11 1 16 14
M  V30 12 1 17 13
M  V30 13 1 18 8
M  V30 14 1 18 11
M  V30 15 1 18 17
M  V30 16 1 7 19 CFG=3
M  V30 17 1 20 5
M  V30 18 1 20 11
M  V30 19 1 20 13
M  V30 20 1 21 3
M  V30 21 2 21 15
M  V30 22 2 22 14
M  V30 23 1 22 21
M  V30 24 1 23 6
M  V30 25 1 23 15
M  V30 26 1 24 2
M  V30 27 1 25 3
M  V30 28 1 26 3
M  V30 29 1 27 4
M  V30 30 1 28 4
M  V30 31 1 29 5
M  V30 32 1 30 5
M  V30 33 1 31 8
M  V30 34 1 32 9
M  V30 35 1 33 10
M  V30 36 1 34 10
M  V30 37 1 35 10
M  V30 38 1 36 11
M  V30 39 1 37 11
M  V30 40 1 38 12
M  V30 41 1 39 12
M  V30 42 1 40 12
M  V30 43 1 41 13
M  V30 44 1 42 13
M  V30 45 1 43 16
M  V30 46 1 44 17
M  V30 47 1 45 17
M  V30 48 1 18 46 CFG=3
M  V30 49 1 47 19
M  V30 50 1 48 22
M  V30 51 1 49 23
M  V30 52 1 50 23
M  V30 53 1 20 51 CFG=1
M  V30 END BOND
M  V30 END CTAB
M  END
>  <i_epik_Tot_Q>  (1) 
1

>  <i_epik_Tot_abs_Q>  (1) 
1

>  <i_i_glide_confnum>  (1) 
36

>  <i_i_glide_lignum>  (1) 
90

>  <i_i_glide_posenum>  (1) 
203

>  <i_i_glide_rotatable_bonds>  (1) 
8

>  <i_lp_mmshare_version>  (1) 
72125

>  <i_m_source_file_index>  (1) 
49

>  <i_f3d_flags>  (1) 
0

>  <num_sample>  (1) 
100

>  <b_lp_Chiralities_Consistent>  (1) 
1

>  <r_epik_Charging_Adjusted_Penalty>  (1) 
0.014070542232369893

>  <r_epik_Ionization_Penalty>  (1) 
0.01444304470814459

>  <r_epik_Ionization_Penalty_Charging>  (1) 
0.014070542232369893

>  <r_epik_Ionization_Penalty_Neutral>  (1) 
0.00037250247577469821

>  <r_epik_State_Penalty>  (1) 
-0

>  <r_glide_ring_energy>  (1) 
0

>  <r_i_docking_score>  (1) 
-7.0748104744394222

>  <r_i_glide_ecoul>  (1) 
-10.146609598553221

>  <r_i_glide_eff_state_penalty>  (1) 
-0

>  <r_i_glide_einternal>  (1) 
5.7545996630347194

>  <r_i_glide_emodel>  (1) 
-59.057205181174027

>  <r_i_glide_emodel_strain>  (1) 
1.1319524359966522

>  <r_i_glide_energy>  (1) 
-40.283970290488263

>  <r_i_glide_erotb>  (1) 
0.89938055447957976

>  <r_i_glide_esite>  (1) 
-0.19277615101893392

>  <r_i_glide_evdw>  (1) 
-30.13736069193504

>  <r_i_glide_gscore>  (1) 
-7.0748104744394222

>  <r_i_glide_gscore_strain>  (1) 
0

>  <r_i_glide_hbond>  (1) 
-0.38083397174459166

>  <r_i_glide_ligand_efficiency>  (1) 
-0.30760045541040965

>  <r_i_glide_ligand_efficiency_ln>  (1) 
-1.7107533235540693

>  <r_i_glide_ligand_efficiency_sa>  (1) 
-0.87477477812896787

>  <r_i_glide_lipo>  (1) 
-2.5033192990483601

>  <r_i_glide_metal>  (1) 
-0

>  <r_i_glide_rewards>  (1) 
-1.8684021327273816

>  <r_lp_Energy>  (1) 
29.344918999999997

>  <r_lp_tautomer_probability>  (1) 
1

>  <s_epik_cmdline>  (1) 
J2VwaWtfcHl0aG9uJywgJy1waHQnLCAnMS4wJywgJy1waCcsICc3LjQnLCAnLXRuJywgJzgnLCAnLW1hJywgJzUwMCcsICctaW1hZScsICc8aW5maWxlLm1hZT4nLCAnLW9tYWUnLCAnPG91dGZpbGUubWFlPic=

>  <s_epik_input>  (1) 
W2NIXTFbY0hdYyhPW0NIM10pW2NIXWMoYzEyKVtDSDJdTihbQ0gyXTIpW05IXVtDQEBIXTNbQ0gyXU4oW0NIMl1bQ0gyXTMpW0NIMl1bQ0BAXShbQ0gzXSkoW09IXSlbQ0gyXVtPSF0=

>  <s_glide_docking_method>  (1) 
confgen

>  <s_i_glide_gridfile>  (1) 
gpcr_drd2_6luq_protein_autoprepared_prepared

>  <s_lp_Force_Field>  (1) 
S-OPLS

>  <s_lp_Variant>  (1) 
DiffSBDD_48_num_sample_100-2

>  <s_m_source_file>  (1) 
generated__ligand_DiffSBDD_2026-05-06_prepared.sdf

>  <GenAI_Model>  (1) 
DiffSBDD

>  <Protein>  (1) 
generic_title2

$$$$
DiffSBDD_17_num_sample_100
     RDKit          3D

  0  0  0  0  0  0  0  0  0  0999 V3000
M  V30 BEGIN CTAB
M  V30 COUNTS 55 57 0 0 1
M  V30 BEGIN ATOM
M  V30 1 N 8.765883 5.737754 -12.440005 0
M  V30 2 C 9.833833 8.564715 -9.928003 0
M  V30 3 C 12.548306 8.353054 -1.448424 0
M  V30 4 C 11.113251 7.288509 -5.790288 0
M  V30 5 C 11.202348 8.719174 -5.883299 0
M  V30 6 C 6.920415 5.326035 -15.788671 0
M  V30 7 N 12.234846 9.420251 -2.417676 0
M  V30 8 C 5.653513 6.072923 -15.354065 0
M  V30 9 C 11.834835 7.467101 -3.472929 0
M  V30 10 F 6.634827 8.162744 -15.477108 0
M  V30 11 N 10.235217 8.123623 -8.603652 0
M  V30 12 C 6.901484 7.109982 -13.371232 0
M  V30 13 C 7.877504 5.151661 -14.630070 0
M  V30 14 C 11.889827 8.801956 -3.569733 0
M  V30 15 O 8.788436 3.405917 -12.291573 0
M  V30 16 C 9.949537 7.613163 -11.155481 0 CFG=2
M  V30 17 C 7.882613 5.942477 -13.528758 0
M  V30 18 C 8.789638 6.566215 -11.228110 0
M  V30 19 C 10.330513 6.824132 -8.168983 0
M  V30 20 C 11.394738 7.087265 -11.316985 0
M  V30 21 C 11.439793 6.670377 -4.556136 0
M  V30 22 C 12.199207 6.926723 -2.132881 0
M  V30 23 N 9.595328 4.602540 -12.483151 0
M  V30 24 C 11.595168 9.470651 -4.758963 0
M  V30 25 C 6.014191 7.362699 -14.613975 0 CFG=2
M  V30 26 C 10.708086 6.420423 -6.937286 0
M  V30 27 H 10.561261 9.368970 -10.005640 0
M  V30 28 H 8.846515 9.023636 -9.882663 0
M  V30 29 H 11.921229 8.569439 -0.584359 0
M  V30 30 H 13.589154 8.435775 -1.142651 0
M  V30 31 H 10.977311 9.235031 -6.785514 0
M  V30 32 H 7.432086 5.848730 -16.596104 0
M  V30 33 H 6.652805 4.340426 -16.167360 0
M  V30 34 H 12.823465 10.242733 -2.459583 0
M  V30 35 H 5.027800 6.288702 -16.220477 0
M  V30 36 H 5.063736 5.435896 -14.692494 0
M  V30 37 H 6.239111 6.865987 -12.539744 0
M  V30 38 H 7.434877 8.024080 -13.107060 0
M  V30 39 H 8.579586 4.335886 -14.715683 0
M  V30 40 H 7.924929 3.741630 -12.480819 0
M  V30 41 H 9.779868 8.243193 -12.028467 0
M  V30 42 H 7.841185 7.075065 -11.091787 0
M  V30 43 H 8.817794 5.868179 -10.397774 0
M  V30 44 H 10.069497 6.104298 -8.918021 0
M  V30 45 H 12.050716 7.768593 -11.840173 0
M  V30 46 H 11.455719 6.169391 -11.892047 0
M  V30 47 H 11.882025 6.969345 -10.352656 0
M  V30 48 H 11.388725 5.598865 -4.452164 0
M  V30 49 H 11.348742 6.426778 -1.666020 0
M  V30 50 H 13.050090 6.249248 -2.186143 0
M  V30 51 H 9.945019 4.449162 -13.428378 0
M  V30 52 H 11.651509 10.547807 -4.813411 0
M  V30 53 H 5.103252 7.887913 -14.323328 0
M  V30 54 H 10.728076 5.369308 -6.744507 0
M  V30 55 H 10.438522 8.854194 -7.944961 0
M  V30 END ATOM
M  V30 BEGIN BOND
M  V30 1 1 5 4
M  V30 2 1 7 3
M  V30 3 1 8 6
M  V30 4 1 11 2
M  V30 5 1 13 6
M  V30 6 1 14 7
M  V30 7 2 14 9
M  V30 8 1 16 2
M  V30 9 1 17 1
M  V30 10 1 17 12
M  V30 11 2 17 13
M  V30 12 1 18 1
M  V30 13 1 18 16
M  V30 14 1 19 11
M  V30 15 1 20 16
M  V30 16 2 21 4
M  V30 17 1 21 9
M  V30 18 1 22 3
M  V30 19 1 22 9
M  V30 20 1 23 1
M  V30 21 1 23 15
M  V30 22 2 24 5
M  V30 23 1 24 14
M  V30 24 1 25 8
M  V30 25 1 25 10
M  V30 26 1 25 12
M  V30 27 1 26 4
M  V30 28 2 26 19
M  V30 29 1 27 2
M  V30 30 1 28 2
M  V30 31 1 29 3
M  V30 32 1 30 3
M  V30 33 1 31 5
M  V30 34 1 32 6
M  V30 35 1 33 6
M  V30 36 1 34 7
M  V30 37 1 35 8
M  V30 38 1 36 8
M  V30 39 1 37 12
M  V30 40 1 38 12
M  V30 41 1 39 13
M  V30 42 1 40 15
M  V30 43 1 16 41 CFG=3
M  V30 44 1 42 18
M  V30 45 1 43 18
M  V30 46 1 44 19
M  V30 47 1 45 20
M  V30 48 1 46 20
M  V30 49 1 47 20
M  V30 50 1 48 21
M  V30 51 1 49 22
M  V30 52 1 50 22
M  V30 53 1 51 23
M  V30 54 1 52 24
M  V30 55 1 25 53 CFG=1
M  V30 56 1 54 26
M  V30 57 1 55 11
M  V30 END BOND
M  V30 END CTAB
M  END
>  <i_epik_Tot_Q>  (1) 
0

>  <i_epik_Tot_abs_Q>  (1) 
0

>  <i_i_glide_confnum>  (1) 
149

>  <i_i_glide_lignum>  (1) 
28

>  <i_i_glide_posenum>  (1) 
384

>  <i_i_glide_rotatable_bonds>  (1) 
9

>  <i_lp_mmshare_version>  (1) 
72125

>  <i_m_source_file_index>  (1) 
18

>  <i_f3d_flags>  (1) 
0

>  <num_sample>  (1) 
100

>  <b_lp_Chiralities_Consistent>  (1) 
1

>  <r_epik_Charging_Adjusted_Penalty>  (1) 
0

>  <r_epik_Ionization_Penalty>  (1) 
0.026997388265497368

>  <r_epik_Ionization_Penalty_Charging>  (1) 
0

>  <r_epik_Ionization_Penalty_Neutral>  (1) 
0.026997388265497368

>  <r_epik_State_Penalty>  (1) 
-0

>  <r_glide_ring_energy>  (1) 
0.25248745697502767

>  <r_i_docking_score>  (1) 
-7.0682485829556168

>  <r_i_glide_ecoul>  (1) 
-1.5131528470565505

>  <r_i_glide_eff_state_penalty>  (1) 
-0

>  <r_i_glide_einternal>  (1) 
6.5112507713180818

>  <r_i_glide_emodel>  (1) 
-40.499608468832648

>  <r_i_glide_emodel_strain>  (1) 
3.0577806575739856

>  <r_i_glide_energy>  (1) 
-31.152650726490855

>  <r_i_glide_erotb>  (1) 
0.88558064458011865

>  <r_i_glide_esite>  (1) 
-0.055871611299285473

>  <r_i_glide_evdw>  (1) 
-29.639497879434305

>  <r_i_glide_gscore>  (1) 
-7.0682485829556168

>  <r_i_glide_gscore_strain>  (1) 
0

>  <r_i_glide_hbond>  (1) 
-0.28515372972377545

>  <r_i_glide_ligand_efficiency>  (1) 
-0.27185571472906217

>  <r_i_glide_ligand_efficiency_ln>  (1) 
-1.6599549868918351

>  <r_i_glide_ligand_efficiency_sa>  (1) 
-0.80537148605892261

>  <r_i_glide_lipo>  (1) 
-3.1310872157409393

>  <r_i_glide_metal>  (1) 
-0

>  <r_i_glide_rewards>  (1) 
-2.7727688497415373

>  <r_lp_Energy>  (1) 
11.300393999999999

>  <r_lp_tautomer_probability>  (1) 
1

>  <s_epik_Chemistry_Notes>  (1) 
This compound has a N-S or N-O group and may undergo hydrolysis at high or low pH.

>  <s_epik_cmdline>  (1) 
J2VwaWtfcHl0aG9uJywgJy1waHQnLCAnMS4wJywgJy1waCcsICc3LjQnLCAnLXRuJywgJzgnLCAnLW1hJywgJzUwMCcsICctaW1hZScsICc8aW5maWxlLm1hZT4nLCAnLW9tYWUnLCAnPG91dGZpbGUubWFlPic=

>  <s_epik_input>  (1) 
RltDQEhdKFtDSDJdMSlbQ0gyXVtDSDJdW0NIXT1DMU4oW05IXVtPSF0pW0NIMl1bQ0BIXShbQ0gzXSlbQ0gyXVtOSF0vW0NIXT1bQ0hdXGMoW2NIXTIpW2NIXVtjSF1jKGMyMylbTkhdW0NIMl1bQ0gyXTM=

>  <s_glide_docking_method>  (1) 
confgen

>  <s_i_glide_gridfile>  (1) 
gpcr_drd2_6luq_protein_autoprepared_prepared

>  <s_lp_Force_Field>  (1) 
S-OPLS

>  <s_lp_Variant>  (1) 
DiffSBDD_17_num_sample_100-1

>  <s_m_source_file>  (1) 
generated__ligand_DiffSBDD_2026-05-06_prepared.sdf

>  <GenAI_Model>  (1) 
DiffSBDD

>  <Protein>  (1) 
generic_title2

$$$$
DiffSBDD_40_num_sample_100
     RDKit          3D

  0  0  0  0  0  0  0  0  0  0999 V3000
M  V30 BEGIN CTAB
M  V30 COUNTS 63 67 0 0 1
M  V30 BEGIN ATOM
M  V30 1 F 11.034881 9.828010 -4.189321 0
M  V30 2 C 9.165009 6.410404 -11.895660 0 CFG=2
M  V30 3 O 5.834696 6.188923 -14.623256 0
M  V30 4 C 8.191178 2.006995 -16.952295 0
M  V30 5 C 9.994850 5.769308 -12.989205 0
M  V30 6 C 6.590539 6.289345 -13.657655 0
M  V30 7 C 7.731152 5.933902 -11.664207 0 CFG=1
M  V30 8 C 10.211444 7.286971 -8.334467 0
M  V30 9 C 5.720627 -0.529815 -16.000900 0
M  V30 10 F 11.895018 7.900681 -3.678801 0
M  V30 11 O 7.627517 4.070959 -13.301184 0
M  V30 12 C 7.821055 4.173865 -18.153316 0
M  V30 13 F 13.053441 9.369355 -4.756095 0
M  V30 14 O 7.152505 -1.866599 -17.491583 0
M  V30 15 C 10.235008 7.352905 -5.891813 0
M  V30 16 N 9.597029 6.776131 -9.548031 0
M  V30 17 N 7.212185 1.480102 -15.968485 0 CFG=1 CHG=1
M  V30 18 C 11.835124 8.851920 -4.610594 0
M  V30 19 C 11.816743 8.713896 -7.147294 0
M  V30 20 C 8.018080 7.367820 -12.180788 0 CFG=2
M  V30 21 C 10.053341 6.969376 -10.812115 0
M  V30 22 C 5.572985 4.569713 -12.072361 0
M  V30 23 C 6.856058 5.131066 -12.699559 0 CFG=2
M  V30 24 O 11.108285 7.534116 -11.075373 0
M  V30 25 C 7.140450 0.004397 -15.963693 0 CFG=2
M  V30 26 C 8.053540 3.513829 -17.006624 0
M  V30 27 C 8.191408 4.224624 -15.678717 0
M  V30 28 C 6.585437 -0.600042 -17.234634 0 CFG=2
M  V30 29 C 11.290470 8.220708 -8.356569 0
M  V30 30 C 7.282948 3.576457 -14.602246 0 CFG=1
M  V30 31 C 9.694756 6.859144 -7.095356 0
M  V30 32 C 7.434316 2.040562 -14.606084 0
M  V30 33 N 7.245383 7.369197 -13.343879 0
M  V30 34 C 11.285098 8.289634 -5.915762 0
M  V30 35 H 9.207420 1.741818 -16.655611 0
M  V30 36 H 8.026173 1.584100 -17.943954 0
M  V30 37 H 9.460977 5.769416 -13.930919 0
M  V30 38 H 10.940685 6.281940 -13.166408 0
M  V30 39 H 10.215229 4.736151 -12.721287 0
M  V30 40 H 7.393056 5.837007 -10.635120 0
M  V30 41 H 4.896558 0.181015 -16.012754 0
M  V30 42 H 5.506802 -1.463597 -15.491618 0
M  V30 43 H 7.725540 5.250515 -18.167006 0
M  V30 44 H 7.724843 3.646459 -19.091777 0
M  V30 45 H 7.320687 -2.306118 -16.661743 0
M  V30 46 H 9.834813 7.019473 -4.948371 0
M  V30 47 H 8.737476 6.256984 -9.434406 0
M  V30 48 H 12.624463 9.425488 -7.165516 0
M  V30 49 H 7.839569 8.189639 -11.488714 0
M  V30 50 H 5.030947 5.350912 -11.539075 0
M  V30 51 H 4.904265 4.150087 -12.824000 0
M  V30 52 H 5.805312 3.785154 -11.352115 0
M  V30 53 H 7.924881 -0.511773 -15.410932 0
M  V30 54 H 9.238274 4.164398 -15.386191 0
M  V30 55 H 7.977123 5.284314 -15.807178 0
M  V30 56 H 6.339765 -0.000591 -18.109588 0
M  V30 57 H 11.703216 8.578167 -9.276232 0
M  V30 58 H 6.235136 3.769422 -14.828478 0
M  V30 59 H 8.876420 6.154241 -7.066836 0
M  V30 60 H 6.711890 1.607012 -13.912710 0
M  V30 61 H 8.421965 1.752068 -14.244184 0
M  V30 62 H 7.167763 8.209421 -13.897026 0
M  V30 63 H 6.304795 1.802822 -16.273323 0
M  V30 END ATOM
M  V30 BEGIN BOND
M  V30 1 1 2 5 CFG=3
M  V30 2 2 6 3
M  V30 3 1 7 2
M  V30 4 1 16 8
M  V30 5 1 17 4
M  V30 6 1 18 1
M  V30 7 1 18 10
M  V30 8 1 18 13
M  V30 9 1 20 2
M  V30 10 1 20 7
M  V30 11 1 21 2
M  V30 12 1 21 16
M  V30 13 1 23 6
M  V30 14 1 23 7
M  V30 15 1 23 11 CFG=3
M  V30 16 1 23 22
M  V30 17 2 24 21
M  V30 18 1 25 9
M  V30 19 1 25 17
M  V30 20 1 26 4
M  V30 21 2 26 12
M  V30 22 1 27 26
M  V30 23 1 28 9
M  V30 24 1 28 14
M  V30 25 1 28 25
M  V30 26 1 29 8
M  V30 27 2 29 19
M  V30 28 1 30 11
M  V30 29 1 30 27
M  V30 30 2 31 8
M  V30 31 1 31 15
M  V30 32 1 32 17
M  V30 33 1 32 30
M  V30 34 1 33 6
M  V30 35 1 33 20
M  V30 36 2 34 15
M  V30 37 1 34 18
M  V30 38 1 34 19
M  V30 39 1 35 4
M  V30 40 1 36 4
M  V30 41 1 37 5
M  V30 42 1 38 5
M  V30 43 1 39 5
M  V30 44 1 7 40 CFG=1
M  V30 45 1 41 9
M  V30 46 1 42 9
M  V30 47 1 43 12
M  V30 48 1 44 12
M  V30 49 1 45 14
M  V30 50 1 46 15
M  V30 51 1 47 16
M  V30 52 1 48 19
M  V30 53 1 20 49 CFG=1
M  V30 54 1 50 22
M  V30 55 1 51 22
M  V30 56 1 52 22
M  V30 57 1 25 53 CFG=1
M  V30 58 1 54 27
M  V30 59 1 55 27
M  V30 60 1 28 56 CFG=3
M  V30 61 1 57 29
M  V30 62 1 30 58 CFG=3
M  V30 63 1 59 31
M  V30 64 1 60 32
M  V30 65 1 61 32
M  V30 66 1 62 33
M  V30 67 1 17 63 CFG=3
M  V30 END BOND
M  V30 END CTAB
M  END
>  <i_epik_Tot_Q>  (1) 
1

>  <i_epik_Tot_abs_Q>  (1) 
1

>  <i_i_glide_confnum>  (1) 
48

>  <i_i_glide_lignum>  (1) 
70

>  <i_i_glide_posenum>  (1) 
64

>  <i_i_glide_rotatable_bonds>  (1) 
8

>  <i_lp_mmshare_version>  (1) 
72125

>  <i_m_source_file_index>  (1) 
41

>  <i_f3d_flags>  (1) 
0

>  <num_sample>  (1) 
100

>  <b_lp_Chiralities_Consistent>  (1) 
1

>  <r_epik_Charging_Adjusted_Penalty>  (1) 
0.4978346940249993

>  <r_epik_Ionization_Penalty>  (1) 
0.24891983878036394

>  <r_epik_Ionization_Penalty_Charging>  (1) 
0.24891734701249965

>  <r_epik_Ionization_Penalty_Neutral>  (1) 
2.4917678643056738e-06

>  <r_epik_State_Penalty>  (1) 
0.24891734701249965

>  <r_glide_ring_energy>  (1) 
0

>  <r_i_docking_score>  (1) 
-7.0677129459717207

>  <r_i_glide_ecoul>  (1) 
-8.0455818810736872

>  <r_i_glide_eff_state_penalty>  (1) 
0.24891734701249965

>  <r_i_glide_einternal>  (1) 
9.049506700590964

>  <r_i_glide_emodel>  (1) 
-69.189237466710154

>  <r_i_glide_emodel_strain>  (1) 
1.8934569218993715

>  <r_i_glide_energy>  (1) 
-51.629172485469041

>  <r_i_glide_erotb>  (1) 
0.52699016033767154

>  <r_i_glide_esite>  (1) 
-0.15199427856347081

>  <r_i_glide_evdw>  (1) 
-43.583590604395354

>  <r_i_glide_gscore>  (1) 
-7.31663029298422

>  <r_i_glide_gscore_strain>  (1) 
0

>  <r_i_glide_hbond>  (1) 
-0.32173212760769199

>  <r_i_glide_ligand_efficiency>  (1) 
-0.20787391017563883

>  <r_i_glide_ligand_efficiency_ln>  (1) 
-1.5614560323983622

>  <r_i_glide_ligand_efficiency_sa>  (1) 
-0.67343077258269524

>  <r_i_glide_lipo>  (1) 
-1.9733837396890554

>  <r_i_glide_metal>  (1) 
-0

>  <r_i_glide_rewards>  (1) 
-2.0104934950808531

>  <r_lp_Energy>  (1) 
40.321003999999995

>  <s_epik_cmdline>  (1) 
J2VwaWtfcHl0aG9uJywgJy1waHQnLCAnMS4wJywgJy1waCcsICc3LjQnLCAnLXRuJywgJzgnLCAnLW1hJywgJzUwMCcsICctaW1hZScsICc8aW5maWxlLm1hZT4nLCAnLW9tYWUnLCAnPG91dGZpbGUubWFlPic=

>  <s_epik_input>  (1) 
RkMoRikoRiljKFtjSF1bY0hdMSlbY0hdW2NIXWMxW05IXUMoPU8pW0NAXTIoW0NIM10pW0NASF0oW0NASF0yMylbTkhdQyg9TylbQ0BAXTMoW0NIM10pT1tDQEhdKFtDSDJdNClbQ0gyXUMoPVtDSDJdKVtDSDJdTjRbQ0BIXTVbQ0gyXVtDQEBIXTVbT0hd

>  <s_glide_docking_method>  (1) 
confgen

>  <s_i_glide_gridfile>  (1) 
gpcr_drd2_6luq_protein_autoprepared_prepared

>  <s_lp_Force_Field>  (1) 
S-OPLS

>  <s_lp_Variant>  (1) 
DiffSBDD_40_num_sample_100-1

>  <s_m_source_file>  (1) 
generated__ligand_DiffSBDD_2026-05-06_prepared.sdf

>  <GenAI_Model>  (1) 
DiffSBDD

>  <Protein>  (1) 
generic_title2

$$$$
DiffSBDD_55_num_sample_100
     RDKit          3D

  0  0  0  0  0  0  0  0  0  0999 V3000
M  V30 BEGIN CTAB
M  V30 COUNTS 51 54 0 0 1
M  V30 BEGIN ATOM
M  V30 1 O 11.998408 8.337221 -7.350186 0
M  V30 2 C 6.450065 5.819856 -17.491163 0
M  V30 3 C 9.834839 6.874680 -10.573222 0
M  V30 4 C 9.256674 4.026202 -11.734361 0
M  V30 5 C 8.967784 6.116037 -7.914086 0 CFG=2
M  V30 6 C 9.834840 7.370833 -7.989949 0 CFG=1
M  V30 7 S 5.509429 7.442254 -15.491664 0
M  V30 8 C 5.204618 6.615392 -17.082000 0
M  V30 9 C 7.213850 5.540017 -16.210383 0
M  V30 10 C 11.434840 8.494592 -5.125050 0
M  V30 11 N 8.580436 6.097574 -10.452781 0 CFG=1 CHG=1
M  V30 12 C 11.147340 7.208642 -7.175619 0 CFG=2
M  V30 13 C 10.050648 7.887004 -9.439560 0 CFG=2
M  V30 14 C 10.944868 7.146751 -5.648759 0
M  V30 15 C 11.645617 9.310571 -6.386204 0
M  V30 16 C 7.070332 5.861533 -13.724130 0
M  V30 17 C 8.250019 5.178524 -11.587626 0 CFG=1
M  V30 18 C 7.018880 6.540181 -15.078486 0 CFG=2
M  V30 19 C 9.434826 4.782571 -8.429034 0
M  V30 20 O 7.952899 4.562909 -16.097123 0
M  V30 21 O 9.183169 8.969301 -9.678736 0
M  V30 22 C 8.157446 5.876065 -12.932834 0
M  V30 23 C 8.309448 5.459448 -9.131529 0 CFG=1
M  V30 24 H 6.190064 4.895442 -18.006425 0
M  V30 25 H 7.086595 6.409980 -18.150094 0
M  V30 26 H 9.879793 7.403531 -11.524476 0
M  V30 27 H 10.634838 6.169307 -10.587961 0
M  V30 28 H 8.922110 3.313076 -12.488988 0
M  V30 29 H 10.234840 4.386333 -12.052217 0
M  V30 30 H 9.396214 3.465668 -10.811779 0
M  V30 31 H 8.393085 6.061170 -6.990708 0
M  V30 32 H 9.259025 8.139807 -7.470915 0
M  V30 33 H 4.352301 5.945496 -16.964573 0
M  V30 34 H 4.935935 7.353394 -17.838390 0
M  V30 35 H 12.367868 8.382101 -4.575185 0
M  V30 36 H 10.725020 8.984756 -4.463680 0
M  V30 37 H 11.683524 6.324100 -7.513104 0
M  V30 38 H 11.053092 8.297544 -9.555287 0
M  V30 39 H 9.903453 6.969311 -5.378771 0
M  V30 40 H 11.531243 6.336383 -5.213554 0
M  V30 41 H 12.405205 10.085751 -6.279695 0
M  V30 42 H 10.706294 9.769316 -6.685486 0
M  V30 43 H 6.179263 5.339107 -13.407473 0
M  V30 44 H 7.271180 4.744963 -11.377492 0
M  V30 45 H 7.834837 7.256830 -15.091667 0
M  V30 46 H 9.124732 3.893154 -7.891667 0
M  V30 47 H 10.417295 4.746881 -8.860932 0
M  V30 48 H 8.289094 8.668254 -9.491672 0
M  V30 49 H 9.038994 6.401427 -13.261677 0
M  V30 50 H 7.299931 5.070408 -9.031784 0
M  V30 51 H 7.857595 6.817366 -10.453354 0
M  V30 END ATOM
M  V30 BEGIN BOND
M  V30 1 1 6 5
M  V30 2 1 8 2
M  V30 3 1 8 7
M  V30 4 1 9 2
M  V30 5 1 11 3
M  V30 6 1 12 1
M  V30 7 1 12 6
M  V30 8 1 13 3
M  V30 9 1 13 6
M  V30 10 1 14 10
M  V30 11 1 14 12
M  V30 12 1 15 1
M  V30 13 1 15 10
M  V30 14 1 17 4
M  V30 15 1 17 11
M  V30 16 1 18 7
M  V30 17 1 18 9
M  V30 18 1 18 16
M  V30 19 1 19 5
M  V30 20 2 20 9
M  V30 21 1 21 13
M  V30 22 2 22 16
M  V30 23 1 22 17
M  V30 24 1 23 5
M  V30 25 1 23 11
M  V30 26 1 23 19
M  V30 27 1 24 2
M  V30 28 1 25 2
M  V30 29 1 26 3
M  V30 30 1 27 3
M  V30 31 1 28 4
M  V30 32 1 29 4
M  V30 33 1 30 4
M  V30 34 1 5 31 CFG=1
M  V30 35 1 6 32 CFG=1
M  V30 36 1 33 8
M  V30 37 1 34 8
M  V30 38 1 35 10
M  V30 39 1 36 10
M  V30 40 1 12 37 CFG=3
M  V30 41 1 13 38 CFG=1
M  V30 42 1 39 14
M  V30 43 1 40 14
M  V30 44 1 41 15
M  V30 45 1 42 15
M  V30 46 1 43 16
M  V30 47 1 17 44 CFG=1
M  V30 48 1 18 45 CFG=1
M  V30 49 1 46 19
M  V30 50 1 47 19
M  V30 51 1 48 21
M  V30 52 1 49 22
M  V30 53 1 23 50 CFG=1
M  V30 54 1 11 51 CFG=3
M  V30 END BOND
M  V30 END CTAB
M  END
>  <i_epik_Tot_Q>  (1) 
1

>  <i_epik_Tot_abs_Q>  (1) 
1

>  <i_i_glide_confnum>  (1) 
194

>  <i_i_glide_lignum>  (1) 
105

>  <i_i_glide_posenum>  (1) 
149

>  <i_i_glide_rotatable_bonds>  (1) 
5

>  <i_lp_mmshare_version>  (1) 
72125

>  <i_m_source_file_index>  (1) 
56

>  <i_f3d_flags>  (1) 
0

>  <num_sample>  (1) 
100

>  <b_lp_Chiralities_Consistent>  (1) 
1

>  <r_epik_Charging_Adjusted_Penalty>  (1) 
0.1887110856522376

>  <r_epik_Ionization_Penalty>  (1) 
0.094355642401006162

>  <r_epik_Ionization_Penalty_Charging>  (1) 
0.094355542826118813

>  <r_epik_Ionization_Penalty_Neutral>  (1) 
9.9574887353862298e-08

>  <r_epik_State_Penalty>  (1) 
0.094355542826118799

>  <r_glide_ring_energy>  (1) 
1.6022130496984912

>  <r_i_docking_score>  (1) 
-7.0540902753060424

>  <r_i_glide_ecoul>  (1) 
-10.608887056955224

>  <r_i_glide_eff_state_penalty>  (1) 
0.094355542826118799

>  <r_i_glide_einternal>  (1) 
2.2950592001655128

>  <r_i_glide_emodel>  (1) 
-44.410349755855542

>  <r_i_glide_emodel_strain>  (1) 
2.1402279589364781

>  <r_i_glide_energy>  (1) 
-30.606494823059336

>  <r_i_glide_erotb>  (1) 
0.49519417565235591

>  <r_i_glide_esite>  (1) 
-0.085665991542809614

>  <r_i_glide_evdw>  (1) 
-19.99760776610411

>  <r_i_glide_gscore>  (1) 
-7.1484458181321608

>  <r_i_glide_gscore_strain>  (1) 
0

>  <r_i_glide_hbond>  (1) 
-0.33358949200710641

>  <r_i_glide_ligand_efficiency>  (1) 
-0.30669957718721924

>  <r_i_glide_ligand_efficiency_ln>  (1) 
-1.7057429915232396

>  <r_i_glide_ligand_efficiency_sa>  (1) 
-0.8722128002971693

>  <r_i_glide_lipo>  (1) 
-2.4479149587813946

>  <r_i_glide_metal>  (1) 
-0

>  <r_i_glide_rewards>  (1) 
-2.1852561046047154

>  <r_lp_Energy>  (1) 
18.143661999999999

>  <r_lp_tautomer_probability>  (1) 
0.99995000000000001

>  <s_epik_cmdline>  (1) 
J2VwaWtfcHl0aG9uJywgJy1waHQnLCAnMS4wJywgJy1waCcsICc3LjQnLCAnLXRuJywgJzgnLCAnLW1hJywgJzUwMCcsICctaW1hZScsICc8aW5maWxlLm1hZT4nLCAnLW9tYWUnLCAnPG91dGZpbGUubWFlPic=

>  <s_epik_input>  (1) 
W0NIMl0xW0NIMl1bQ0gyXU9bQ0BASF0xW0NASF0yW0NASF0oW09IXSlbQ0gyXU4oW0NASF0oW0NASF0yMylbQ0gyXTMpW0NASF0oW0NIM10pXFtDSF09W0NIXVxbQ0BASF00U1tDSDJdW0NIMl1DND1P

>  <s_glide_docking_method>  (1) 
confgen

>  <s_i_glide_gridfile>  (1) 
gpcr_drd2_6luq_protein_autoprepared_prepared

>  <s_lp_Force_Field>  (1) 
S-OPLS

>  <s_lp_Variant>  (1) 
DiffSBDD_55_num_sample_100-6

>  <s_m_source_file>  (1) 
generated__ligand_DiffSBDD_2026-05-06_prepared.sdf

>  <GenAI_Model>  (1) 
DiffSBDD

>  <Protein>  (1) 
generic_title2

$$$$
DiffSBDD_55_num_sample_100
     RDKit          3D

  0  0  0  0  0  0  0  0  0  0999 V3000
M  V30 BEGIN CTAB
M  V30 COUNTS 51 54 0 0 1
M  V30 BEGIN ATOM
M  V30 1 O 6.669229 4.168680 -11.648194 0
M  V30 2 C 12.403462 8.931390 -3.461636 0
M  V30 3 C 9.266301 7.637097 -11.303695 0
M  V30 4 C 11.802104 8.349397 -9.636753 0
M  V30 5 C 9.288219 4.937098 -10.343318 0 CFG=2
M  V30 6 C 8.860144 5.213549 -11.778417 0 CFG=1
M  V30 7 S 11.434970 6.569542 -4.493252 0
M  V30 8 C 12.234599 7.444338 -3.111274 0
M  V30 9 C 11.556789 9.232702 -4.684926 0
M  V30 10 C 6.234338 3.844234 -13.891686 0
M  V30 11 N 9.434958 7.439394 -9.840720 0 CFG=2 CHG=1
M  V30 12 C 7.951888 4.068001 -12.261069 0 CFG=2
M  V30 13 C 8.258758 6.632848 -11.879703 0 CFG=2
M  V30 14 C 7.734649 3.957925 -13.773611 0
M  V30 15 C 5.712028 4.514963 -12.631050 0
M  V30 16 C 11.072701 8.061365 -6.819096 0
M  V30 17 C 10.319142 8.446983 -9.200920 0 CFG=1
M  V30 18 C 10.863782 8.052103 -5.334396 0 CFG=1
M  V30 19 C 8.462354 5.262898 -9.118805 0
M  V30 20 O 11.434839 10.373920 -5.120461 0
M  V30 21 O 7.920089 7.025864 -13.191496 0
M  V30 22 C 10.123978 8.420599 -7.699048 0
M  V30 23 C 9.726725 6.044813 -9.410308 0 CFG=1
M  V30 24 H 12.116725 9.573527 -2.628435 0
M  V30 25 H 13.434859 9.158955 -3.714191 0
M  V30 26 H 10.219423 7.553510 -11.825692 0
M  V30 27 H 8.894299 8.648751 -11.468742 0
M  V30 28 H 12.408402 9.088481 -9.111414 0
M  V30 29 H 12.239586 7.369302 -9.448322 0
M  V30 30 H 11.931469 8.563013 -10.691380 0
M  V30 31 H 9.834839 4.001836 -10.254423 0
M  V30 32 H 9.770954 5.180195 -12.379232 0
M  V30 33 H 11.603415 7.339407 -2.227842 0
M  V30 34 H 13.193333 6.981554 -2.877267 0
M  V30 35 H 5.941229 2.794098 -13.891627 0
M  V30 36 H 5.842426 4.313921 -14.792141 0
M  V30 37 H 8.390528 3.122861 -11.939451 0
M  V30 38 H 7.327189 6.677400 -11.318357 0
M  V30 39 H 8.101207 4.825867 -14.315664 0
M  V30 40 H 8.234005 3.086024 -14.196203 0
M  V30 41 H 4.716481 4.169642 -12.352096 0
M  V30 42 H 5.674767 5.597775 -12.749987 0
M  V30 43 H 12.049028 7.761533 -7.167439 0
M  V30 44 H 9.953469 9.426610 -9.491767 0
M  V30 45 H 9.801406 8.145135 -5.142152 0
M  V30 46 H 8.495672 4.559493 -8.290158 0
M  V30 47 H 7.497180 5.742463 -9.263317 0
M  V30 48 H 8.659619 6.886190 -13.762681 0
M  V30 49 H 9.148703 8.717400 -7.337038 0
M  V30 50 H 10.575940 5.901813 -8.744482 0
M  V30 51 H 8.483926 7.627540 -9.491888 0
M  V30 END ATOM
M  V30 BEGIN BOND
M  V30 1 1 6 5
M  V30 2 1 8 2
M  V30 3 1 8 7
M  V30 4 1 9 2
M  V30 5 1 11 3
M  V30 6 1 12 1
M  V30 7 1 12 6
M  V30 8 1 13 3
M  V30 9 1 13 6
M  V30 10 1 14 10
M  V30 11 1 14 12
M  V30 12 1 15 1
M  V30 13 1 15 10
M  V30 14 1 17 4
M  V30 15 1 17 11
M  V30 16 1 18 7
M  V30 17 1 18 9
M  V30 18 1 18 16
M  V30 19 1 19 5
M  V30 20 2 20 9
M  V30 21 1 21 13
M  V30 22 2 22 16
M  V30 23 1 22 17
M  V30 24 1 23 5
M  V30 25 1 23 11
M  V30 26 1 23 19
M  V30 27 1 24 2
M  V30 28 1 25 2
M  V30 29 1 26 3
M  V30 30 1 27 3
M  V30 31 1 28 4
M  V30 32 1 29 4
M  V30 33 1 30 4
M  V30 34 1 5 31 CFG=3
M  V30 35 1 6 32 CFG=3
M  V30 36 1 33 8
M  V30 37 1 34 8
M  V30 38 1 35 10
M  V30 39 1 36 10
M  V30 40 1 12 37 CFG=1
M  V30 41 1 13 38 CFG=1
M  V30 42 1 39 14
M  V30 43 1 40 14
M  V30 44 1 41 15
M  V30 45 1 42 15
M  V30 46 1 43 16
M  V30 47 1 17 44 CFG=3
M  V30 48 1 18 45 CFG=3
M  V30 49 1 46 19
M  V30 50 1 47 19
M  V30 51 1 48 21
M  V30 52 1 49 22
M  V30 53 1 23 50 CFG=1
M  V30 54 1 11 51 CFG=1
M  V30 END BOND
M  V30 END CTAB
M  END
>  <i_epik_Tot_Q>  (1) 
1

>  <i_epik_Tot_abs_Q>  (1) 
1

>  <i_i_glide_confnum>  (1) 
65

>  <i_i_glide_lignum>  (1) 
100

>  <i_i_glide_posenum>  (1) 
181

>  <i_i_glide_rotatable_bonds>  (1) 
5

>  <i_lp_mmshare_version>  (1) 
72125

>  <i_m_source_file_index>  (1) 
56

>  <i_f3d_flags>  (1) 
0

>  <num_sample>  (1) 
100

>  <b_lp_Chiralities_Consistent>  (1) 
1

>  <r_epik_Charging_Adjusted_Penalty>  (1) 
0.1887110856522376

>  <r_epik_Ionization_Penalty>  (1) 
0.094355642401006162

>  <r_epik_Ionization_Penalty_Charging>  (1) 
0.094355542826118813

>  <r_epik_Ionization_Penalty_Neutral>  (1) 
9.9574887353862298e-08

>  <r_epik_State_Penalty>  (1) 
0.094355542826118799

>  <r_glide_ring_energy>  (1) 
0.48034924446920019

>  <r_i_docking_score>  (1) 
-7.0378333942764764

>  <r_i_glide_ecoul>  (1) 
-5.271933005243886

>  <r_i_glide_eff_state_penalty>  (1) 
0.094355542826118799

>  <r_i_glide_einternal>  (1) 
4.8519449584498702

>  <r_i_glide_emodel>  (1) 
-58.933304889764763

>  <r_i_glide_emodel_strain>  (1) 
0.29106683507556141

>  <r_i_glide_energy>  (1) 
-40.70099754941787

>  <r_i_glide_erotb>  (1) 
0.49519417565235591

>  <r_i_glide_esite>  (1) 
-0.10000000000000001

>  <r_i_glide_evdw>  (1) 
-35.429064544173983

>  <r_i_glide_gscore>  (1) 
-7.1321889371025948

>  <r_i_glide_gscore_strain>  (1) 
0

>  <r_i_glide_hbond>  (1) 
-0.20000000000000001

>  <r_i_glide_ligand_efficiency>  (1) 
-0.3059927562728903

>  <r_i_glide_ligand_efficiency_ln>  (1) 
-1.7018119302810435

>  <r_i_glide_ligand_efficiency_sa>  (1) 
-0.87020269563824071

>  <r_i_glide_lipo>  (1) 
-2.313954207486939

>  <r_i_glide_metal>  (1) 
-0

>  <r_i_glide_rewards>  (1) 
-2.4511857272727284

>  <r_lp_Energy>  (1) 
19.402072999999998

>  <r_lp_tautomer_probability>  (1) 
0.99995000000000001

>  <s_epik_cmdline>  (1) 
J2VwaWtfcHl0aG9uJywgJy1waHQnLCAnMS4wJywgJy1waCcsICc3LjQnLCAnLXRuJywgJzgnLCAnLW1hJywgJzUwMCcsICctaW1hZScsICc8aW5maWxlLm1hZT4nLCAnLW9tYWUnLCAnPG91dGZpbGUubWFlPic=

>  <s_epik_input>  (1) 
W0NIMl0xW0NIMl1bQ0gyXU9bQ0BASF0xW0NASF0yW0NASF0oW09IXSlbQ0gyXU4oW0NASF0oW0NASF0yMylbQ0gyXTMpW0NASF0oW0NIM10pXFtDSF09W0NIXVxbQ0BIXTRTW0NIMl1bQ0gyXUM0PU8=

>  <s_glide_docking_method>  (1) 
confgen

>  <s_i_glide_gridfile>  (1) 
gpcr_drd2_6luq_protein_autoprepared_prepared

>  <s_lp_Force_Field>  (1) 
S-OPLS

>  <s_lp_Variant>  (1) 
DiffSBDD_55_num_sample_100-1

>  <s_m_source_file>  (1) 
generated__ligand_DiffSBDD_2026-05-06_prepared.sdf

>  <GenAI_Model>  (1) 
DiffSBDD

>  <Protein>  (1) 
generic_title2

$$$$
DiffSBDD_29_num_sample_100
     RDKit          3D

  0  0  0  0  0  0  0  0  0  0999 V3000
M  V30 BEGIN CTAB
M  V30 COUNTS 73 77 0 0 1
M  V30 BEGIN ATOM
M  V30 1 F 13.180053 7.942270 -8.582637 0
M  V30 2 O 5.469787 7.536723 -14.690620 0
M  V30 3 N 7.121592 3.569745 -14.667196 0
M  V30 4 C 6.881263 5.608508 -19.295547 0
M  V30 5 N 11.596567 9.572349 -6.774696 0
M  V30 6 C 12.234842 9.099485 -4.429966 0
M  V30 7 C 6.750262 6.636709 -12.845837 0 CFG=1
M  V30 8 C 11.652809 6.865079 -3.606784 0
M  V30 9 C 11.656177 8.747553 -5.659440 0
M  V30 10 C 6.509209 3.332221 -13.422689 0
M  V30 11 C 6.548131 5.994993 -16.776139 0
M  V30 12 N 7.454901 5.769302 -10.691665 0
M  V30 13 C 6.806182 3.074999 -19.292776 0 CFG=1
M  V30 14 O 5.952684 1.962289 -19.450833 0
M  V30 15 O 7.834839 4.569300 -8.429323 0
M  V30 16 C 8.913079 4.327510 -16.209790 0
M  V30 17 C 8.282891 4.302660 -17.614116 0 CFG=2
M  V30 18 C 11.034815 8.750786 -7.944088 0 CFG=2
M  V30 19 C 9.983228 6.410975 -7.718730 0
M  V30 20 C 7.813633 7.760407 -12.825751 0
M  V30 21 C 6.562191 4.095052 -12.293783 0
M  V30 22 C 6.152399 6.374691 -14.261397 0 CFG=2
M  V30 23 N 9.502233 6.384874 -9.046235 0
M  V30 24 C 11.075506 6.569298 -4.867320 0
M  V30 25 C 10.653516 7.455643 -7.190998 0
M  V30 26 C 7.535961 5.619944 -17.898268 0 CFG=1
M  V30 27 C 12.234898 8.143862 -3.385120 0
M  V30 28 C 6.007736 4.365669 -19.530831 0
M  V30 29 F 11.618148 7.885987 -10.097153 0
M  V30 30 C 7.968734 4.698403 -15.039923 0 CFG=1
M  V30 31 C 7.426308 3.048919 -17.886295 0
M  V30 32 C 7.336406 5.400526 -12.109079 0 CFG=1
M  V30 33 C 7.171068 5.988837 -15.353038 0 CFG=1
M  V30 34 C 12.094161 8.557673 -9.050609 0
M  V30 35 C 11.114748 7.547181 -5.867170 0
M  V30 36 O 9.434840 4.169304 -10.391088 0
M  V30 37 S 8.570942 5.049190 -9.602204 0
M  V30 38 H 4.830989 7.769940 -14.033210 0
M  V30 39 H 6.292450 6.514602 -19.445474 0
M  V30 40 H 7.666372 5.633115 -20.052808 0
M  V30 41 H 12.332550 10.239409 -6.945170 0
M  V30 42 H 12.672735 10.074544 -4.285670 0
M  V30 43 H 5.907555 6.988931 -12.247259 0
M  V30 44 H 11.646592 6.125279 -2.818844 0
M  V30 45 H 5.930530 2.420199 -13.423091 0
M  V30 46 H 6.179108 6.995039 -17.006486 0
M  V30 47 H 5.664159 5.369302 -16.796485 0
M  V30 48 H 7.093879 6.692172 -10.372774 0
M  V30 49 H 7.601352 2.998432 -20.036286 0
M  V30 50 H 5.253317 2.019243 -18.817212 0
M  V30 51 H 9.393446 3.370244 -16.027847 0
M  V30 52 H 9.721902 5.059653 -16.223748 0
M  V30 53 H 9.111333 4.251164 -18.322674 0
M  V30 54 H 10.126532 9.188766 -8.356067 0
M  V30 55 H 9.746435 5.523057 -7.153156 0
M  V30 56 H 8.794293 7.371459 -13.091656 0
M  V30 57 H 7.903745 8.206129 -11.834554 0
M  V30 58 H 7.594803 8.563161 -13.526691 0
M  V30 59 H 5.375171 5.613850 -14.198789 0
M  V30 60 H 9.311790 7.282289 -9.491588 0
M  V30 61 H 10.634854 5.610547 -5.053205 0
M  V30 62 H 8.288108 6.407731 -17.919962 0
M  V30 63 H 12.674533 8.383955 -2.427625 0
M  V30 64 H 5.621453 4.378894 -20.550600 0
M  V30 65 H 5.138654 4.397269 -18.874666 0
M  V30 66 H 8.678986 4.876706 -14.248989 0
M  V30 67 H 6.634841 2.967581 -17.148088 0
M  V30 68 H 8.037847 2.152466 -17.772125 0
M  V30 69 H 8.361400 5.223649 -12.404352 0
M  V30 70 H 7.898567 6.785201 -15.345301 0
M  V30 71 H 12.421378 9.514952 -9.451958 0
M  V30 72 H 6.018338 3.755560 -11.423256 0
M  V30 73 H 6.978017 2.881523 -15.392819 0
M  V30 END ATOM
M  V30 BEGIN BOND
M  V30 1 1 9 5
M  V30 2 2 9 6
M  V30 3 1 10 3
M  V30 4 1 14 13
M  V30 5 1 17 16
M  V30 6 1 18 5
M  V30 7 1 20 7
M  V30 8 2 21 10
M  V30 9 1 22 2
M  V30 10 1 22 7
M  V30 11 1 23 19
M  V30 12 1 24 8
M  V30 13 1 25 18
M  V30 14 2 25 19
M  V30 15 1 26 4
M  V30 16 1 26 11
M  V30 17 1 26 17
M  V30 18 1 27 6
M  V30 19 2 27 8
M  V30 20 1 28 4
M  V30 21 1 28 13
M  V30 22 1 30 3
M  V30 23 1 30 16
M  V30 24 1 31 13
M  V30 25 1 31 17
M  V30 26 1 32 7
M  V30 27 1 32 12
M  V30 28 1 32 21
M  V30 29 1 33 11
M  V30 30 1 33 22
M  V30 31 1 33 30
M  V30 32 1 34 1
M  V30 33 1 34 18
M  V30 34 1 34 29
M  V30 35 1 35 9
M  V30 36 2 35 24
M  V30 37 1 35 25
M  V30 38 1 37 12
M  V30 39 2 37 15
M  V30 40 1 37 23
M  V30 41 2 37 36
M  V30 42 1 38 2
M  V30 43 1 39 4
M  V30 44 1 40 4
M  V30 45 1 41 5
M  V30 46 1 42 6
M  V30 47 1 7 43 CFG=1
M  V30 48 1 44 8
M  V30 49 1 45 10
M  V30 50 1 46 11
M  V30 51 1 47 11
M  V30 52 1 48 12
M  V30 53 1 13 49 CFG=3
M  V30 54 1 50 14
M  V30 55 1 51 16
M  V30 56 1 52 16
M  V30 57 1 17 53 CFG=3
M  V30 58 1 18 54 CFG=3
M  V30 59 1 55 19
M  V30 60 1 56 20
M  V30 61 1 57 20
M  V30 62 1 58 20
M  V30 63 1 22 59 CFG=1
M  V30 64 1 60 23
M  V30 65 1 61 24
M  V30 66 1 26 62 CFG=3
M  V30 67 1 63 27
M  V30 68 1 64 28
M  V30 69 1 65 28
M  V30 70 1 30 66 CFG=1
M  V30 71 1 67 31
M  V30 72 1 68 31
M  V30 73 1 32 69 CFG=3
M  V30 74 1 33 70 CFG=3
M  V30 75 1 71 34
M  V30 76 1 72 21
M  V30 77 1 73 3
M  V30 END BOND
M  V30 END CTAB
M  END
>  <i_epik_Tot_Q>  (1) 
0

>  <i_epik_Tot_abs_Q>  (1) 
0

>  <i_i_glide_confnum>  (1) 
62

>  <i_i_glide_lignum>  (1) 
51

>  <i_i_glide_posenum>  (1) 
181

>  <i_i_glide_rotatable_bonds>  (1) 
7

>  <i_lp_mmshare_version>  (1) 
72125

>  <i_m_source_file_index>  (1) 
30

>  <i_f3d_flags>  (1) 
0

>  <num_sample>  (1) 
100

>  <b_lp_Chiralities_Consistent>  (1) 
1

>  <r_epik_Charging_Adjusted_Penalty>  (1) 
1.5459132844328078e-07

>  <r_epik_Ionization_Penalty>  (1) 
1.5952634643945804

>  <r_epik_Ionization_Penalty_Charging>  (1) 
1.5459132844328078e-07

>  <r_epik_Ionization_Penalty_Neutral>  (1) 
1.595263309803252

>  <r_epik_State_Penalty>  (1) 
-0

>  <r_glide_ring_energy>  (1) 
0

>  <r_i_docking_score>  (1) 
-7.0325152486623344

>  <r_i_glide_ecoul>  (1) 
-6.6101215393131962

>  <r_i_glide_eff_state_penalty>  (1) 
-0

>  <r_i_glide_einternal>  (1) 
7.7197606431891375

>  <r_i_glide_emodel>  (1) 
-43.158787999162534

>  <r_i_glide_emodel_strain>  (1) 
1.5970749651401093

>  <r_i_glide_energy>  (1) 
-37.755108435072138

>  <r_i_glide_erotb>  (1) 
0.28486469644810641

>  <r_i_glide_esite>  (1) 
-0.23623620800177894

>  <r_i_glide_evdw>  (1) 
-31.14498689575894

>  <r_i_glide_gscore>  (1) 
-7.0325152486623344

>  <r_i_glide_gscore_strain>  (1) 
0

>  <r_i_glide_hbond>  (1) 
-0.14675753887458634

>  <r_i_glide_ligand_efficiency>  (1) 
-0.19006797969357661

>  <r_i_glide_ligand_efficiency_ln>  (1) 
-1.5251876918861469

>  <r_i_glide_ligand_efficiency_sa>  (1) 
-0.63334867523313532

>  <r_i_glide_lipo>  (1) 
-3.5868116395898726

>  <r_i_glide_metal>  (1) 
-0

>  <r_i_glide_rewards>  (1) 
-0.79880698295927521

>  <r_lp_Energy>  (1) 
36.760202

>  <r_lp_tautomer_probability>  (1) 
1

>  <s_epik_Chemistry_Notes>  (1) 
This compound has an imine and may undergo hydrolysis.

>  <s_epik_cmdline>  (1) 
J2VwaWtfcHl0aG9uJywgJy1waHQnLCAnMS4wJywgJy1waCcsICc3LjQnLCAnLXRuJywgJzgnLCAnLW1hJywgJzUwMCcsICctaW1hZScsICc8aW5maWxlLm1hZT4nLCAnLW9tYWUnLCAnPG91dGZpbGUubWFlPic=

>  <s_epik_input>  (1) 
W2NIXTFbY0hdW2NIXVtjSF1jKGMxMilDKFxbQ0BASF0oW05IXTIpW0NIXShGKUYpPVtDSF1cW05IXVMoPU8pKD1PKVtOSF1bQ0BIXShbQ0BASF0oW0NIM10pW0NASF0zW09IXSlbQ0gyXVxbQ0hdPU5cW0NAQEhdKFtDSDJdNClbQ0BIXTNbQ0gyXVtDQEBIXShbQ0BASF00NSlbQ0gyXVtDSDJdW0NASF0oW09IXSlbQ0gyXTU=

>  <s_glide_docking_method>  (1) 
confgen

>  <s_i_glide_gridfile>  (1) 
gpcr_drd2_6luq_protein_autoprepared_prepared

>  <s_lp_Force_Field>  (1) 
S-OPLS

>  <s_lp_Variant>  (1) 
DiffSBDD_29_num_sample_100-1

>  <s_m_source_file>  (1) 
generated__ligand_DiffSBDD_2026-05-06_prepared.sdf

>  <GenAI_Model>  (1) 
DiffSBDD

>  <Protein>  (1) 
generic_title2

$$$$
DiffSBDD_76_num_sample_100
     RDKit          3D

  0  0  0  0  0  0  0  0  0  0999 V3000
M  V30 BEGIN CTAB
M  V30 COUNTS 77 80 0 0 1
M  V30 BEGIN ATOM
M  V30 1 C 6.871751 6.999830 -14.611738 0
M  V30 2 C 5.601453 5.575910 -19.438508 0
M  V30 3 C 7.221840 4.660701 -12.405812 0
M  V30 4 N 7.060905 5.538312 -14.788552 0 CFG=2 CHG=1
M  V30 5 C 5.495162 4.893613 -20.688512 0
M  V30 6 C 11.834829 8.586777 -4.189686 0
M  V30 7 C 12.223571 9.425649 -5.153174 0
M  V30 8 C 10.602725 7.732136 -8.029616 0 CFG=1
M  V30 9 C 5.814367 6.853157 -16.969311 0
M  V30 10 N 9.434898 6.861040 -10.119175 0
M  V30 11 C 9.822277 7.991528 -10.979179 0
M  V30 12 C 6.633558 5.741319 -17.216915 0
M  V30 13 C 12.294612 9.044192 -6.620240 0
M  V30 14 C 7.361227 3.976525 -18.769713 0
M  V30 15 C 4.931479 7.274035 -17.972585 0
M  V30 16 C 10.225543 5.183385 -8.406652 0
M  V30 17 C 5.868639 7.580753 -15.631697 0
M  V30 18 C 9.069597 5.744905 -11.011647 0
M  V30 19 N 4.821472 6.659703 -19.164504 0
M  V30 20 O 8.634878 8.545460 -11.491654 0
M  V30 21 O 7.064800 2.036858 -22.519263 0
M  V30 22 C 11.748808 7.617472 -6.980877 0 CFG=1
M  V30 23 C 6.333897 3.747630 -20.964313 0
M  V30 24 C 7.558755 5.700075 -11.328548 0
M  V30 25 N 8.634831 7.099364 -6.691602 0 CHG=1
M  V30 26 C 10.458853 6.569307 -9.084537 0 CFG=2
M  V30 27 O 4.587689 5.351571 -21.610818 0 CHG=-1
M  V30 28 C 7.916157 4.892361 -13.763268 0
M  V30 29 C 6.541697 5.089366 -18.476279 0
M  V30 30 C 7.581559 5.242388 -16.140723 0
M  V30 31 C 9.286746 8.199260 -7.399192 0
M  V30 32 C 11.434921 7.239581 -4.484717 0
M  V30 33 C 11.393076 6.776885 -5.739253 0
M  V30 34 C 6.282697 2.955049 -22.267380 0
M  V30 35 C 7.257536 3.321653 -19.995527 0
M  V30 36 C 5.208887 3.309802 -23.282245 0
M  V30 37 H 6.507443 7.226969 -13.611593 0
M  V30 38 H 7.834933 7.498076 -14.692989 0
M  V30 39 H 7.540313 3.689075 -12.025762 0
M  V30 40 H 6.141470 4.575909 -12.534710 0
M  V30 41 H 11.819530 8.929693 -3.163631 0
M  V30 42 H 12.511982 10.427929 -4.901802 0
M  V30 43 H 10.934009 8.579532 -8.615935 0
M  V30 44 H 10.504769 7.704029 -11.779906 0
M  V30 45 H 10.312580 8.790729 -10.440205 0
M  V30 46 H 13.338105 9.117132 -6.928582 0
M  V30 47 H 11.783911 9.836883 -7.162068 0
M  V30 48 H 8.076772 3.618905 -18.052485 0
M  V30 49 H 4.286041 8.123977 -17.810519 0
M  V30 50 H 11.034797 4.969424 -7.726908 0
M  V30 51 H 9.278873 5.083865 -7.886836 0
M  V30 52 H 10.234505 4.316702 -9.055592 0
M  V30 53 H 6.101627 8.629456 -15.817641 0
M  V30 54 H 4.869775 7.573109 -15.205462 0
M  V30 55 H 9.693937 5.789399 -11.899286 0
M  V30 56 H 9.269429 4.755768 -10.632935 0
M  V30 57 H 7.947276 8.330819 -10.860537 0
M  V30 58 H 12.563227 7.095447 -7.482405 0
M  V30 59 H 7.021441 5.444341 -10.413897 0
M  V30 60 H 7.154785 6.661123 -11.621781 0
M  V30 61 H 7.610187 7.226143 -6.700838 0
M  V30 62 H 8.814775 6.253988 -7.209459 0
M  V30 63 H 11.420605 6.569483 -9.591518 0
M  V30 64 H 8.854340 5.437793 -13.700414 0
M  V30 65 H 8.196890 3.899732 -14.117650 0
M  V30 66 H 8.573898 5.671982 -16.289601 0
M  V30 67 H 7.659923 4.158597 -16.181594 0
M  V30 68 H 9.447474 9.013368 -6.695593 0
M  V30 69 H 8.634833 8.590962 -8.175121 0
M  V30 70 H 11.162020 6.581138 -3.672112 0
M  V30 71 H 11.092172 5.768322 -5.906001 0
M  V30 72 H 7.891982 2.469858 -20.197397 0
M  V30 73 H 4.234855 3.329049 -22.807255 0
M  V30 74 H 5.414605 4.258768 -23.776804 0
M  V30 75 H 5.172753 2.518292 -24.024670 0
M  V30 76 H 8.975681 7.009313 -5.744953 0
M  V30 77 H 6.147365 5.112046 -14.737203 0
M  V30 END ATOM
M  V30 BEGIN BOND
M  V30 1 1 4 1
M  V30 2 2 5 2
M  V30 3 2 7 6
M  V30 4 1 11 10
M  V30 5 2 12 9
M  V30 6 1 13 7
M  V30 7 1 15 9
M  V30 8 1 17 1
M  V30 9 1 17 9
M  V30 10 1 18 10
M  V30 11 1 19 2
M  V30 12 2 19 15
M  V30 13 1 20 11
M  V30 14 1 22 8
M  V30 15 1 22 13
M  V30 16 1 23 5
M  V30 17 1 24 3
M  V30 18 1 24 18
M  V30 19 1 26 8
M  V30 20 1 26 10
M  V30 21 1 26 16
M  V30 22 1 27 5
M  V30 23 1 28 3
M  V30 24 1 28 4
M  V30 25 1 29 2
M  V30 26 1 29 12
M  V30 27 2 29 14
M  V30 28 1 30 4
M  V30 29 1 30 12
M  V30 30 1 31 8
M  V30 31 1 31 25
M  V30 32 1 32 6
M  V30 33 1 33 22
M  V30 34 2 33 32
M  V30 35 2 34 21
M  V30 36 1 34 23
M  V30 37 1 35 14
M  V30 38 2 35 23
M  V30 39 1 36 34
M  V30 40 1 37 1
M  V30 41 1 38 1
M  V30 42 1 39 3
M  V30 43 1 40 3
M  V30 44 1 41 6
M  V30 45 1 42 7
M  V30 46 1 8 43 CFG=3
M  V30 47 1 44 11
M  V30 48 1 45 11
M  V30 49 1 46 13
M  V30 50 1 47 13
M  V30 51 1 48 14
M  V30 52 1 49 15
M  V30 53 1 50 16
M  V30 54 1 51 16
M  V30 55 1 52 16
M  V30 56 1 53 17
M  V30 57 1 54 17
M  V30 58 1 55 18
M  V30 59 1 56 18
M  V30 60 1 57 20
M  V30 61 1 22 58 CFG=3
M  V30 62 1 59 24
M  V30 63 1 60 24
M  V30 64 1 61 25
M  V30 65 1 62 25
M  V30 66 1 26 63 CFG=3
M  V30 67 1 64 28
M  V30 68 1 65 28
M  V30 69 1 66 30
M  V30 70 1 67 30
M  V30 71 1 68 31
M  V30 72 1 69 31
M  V30 73 1 70 32
M  V30 74 1 71 33
M  V30 75 1 72 35
M  V30 76 1 73 36
M  V30 77 1 74 36
M  V30 78 1 75 36
M  V30 79 1 76 25
M  V30 80 1 4 77 CFG=3
M  V30 END BOND
M  V30 END CTAB
M  END
>  <i_epik_Tot_Q>  (1) 
1

>  <i_epik_Tot_abs_Q>  (1) 
3

>  <i_i_glide_confnum>  (1) 
1086

>  <i_i_glide_lignum>  (1) 
153

>  <i_i_glide_posenum>  (1) 
93

>  <i_i_glide_rotatable_bonds>  (1) 
12

>  <i_lp_mmshare_version>  (1) 
72125

>  <i_m_source_file_index>  (1) 
77

>  <i_f3d_flags>  (1) 
0

>  <num_sample>  (1) 
100

>  <b_lp_Chiralities_Consistent>  (1) 
1

>  <r_epik_Charging_Adjusted_Penalty>  (1) 
0.19513752508682314

>  <r_epik_Ionization_Penalty>  (1) 
0.12765993639139714

>  <r_epik_Ionization_Penalty_Charging>  (1) 
0.058121654325050918

>  <r_epik_Ionization_Penalty_Neutral>  (1) 
0.069538282066346213

>  <r_epik_State_Penalty>  (1) 
0.13701587076177221

>  <r_glide_ring_energy>  (1) 
0.68305203791256774

>  <r_i_docking_score>  (1) 
-7.0223880501708296

>  <r_i_glide_ecoul>  (1) 
-11.445575455995042

>  <r_i_glide_eff_state_penalty>  (1) 
0.13701587076177221

>  <r_i_glide_einternal>  (1) 
41.338392329591329

>  <r_i_glide_emodel>  (1) 
-37.159767092495322

>  <r_i_glide_emodel_strain>  (1) 
5.0439550428182258

>  <r_i_glide_energy>  (1) 
-44.00043332316497

>  <r_i_glide_erotb>  (1) 
0.66875336800380736

>  <r_i_glide_esite>  (1) 
-0.15894250006591143

>  <r_i_glide_evdw>  (1) 
-32.554857867169929

>  <r_i_glide_gscore>  (1) 
-7.1594039209326015

>  <r_i_glide_gscore_strain>  (1) 
0.26098876070455646

>  <r_i_glide_hbond>  (1) 
-0.3546556616455494

>  <r_i_glide_ligand_efficiency>  (1) 
-0.19506633472696749

>  <r_i_glide_ligand_efficiency_ln>  (1) 
-1.5320953495473537

>  <r_i_glide_ligand_efficiency_sa>  (1) 
-0.64409484597697431

>  <r_i_glide_lipo>  (1) 
-3.2867129776097723

>  <r_i_glide_metal>  (1) 
-0

>  <r_i_glide_rewards>  (1) 
-0.94425569856197999

>  <r_lp_Energy>  (1) 
66.867964000000001

>  <r_lp_tautomer_probability>  (1) 
0.99995000000000001

>  <s_epik_Chemistry_Notes>  (1) 
This compound contains an acetal/aminal-like group ( X-CH(R)-Y where X, Y are N, S, or O) that may be acid/base labile, releasing an aldehyde.

>  <s_epik_cmdline>  (1) 
J2VwaWtfcHl0aG9uJywgJy1waHQnLCAnMS4wJywgJy1waCcsICc3LjQnLCAnLXRuJywgJzgnLCAnLW1hJywgJzUwMCcsICctaW1hZScsICc8aW5maWxlLm1hZT4nLCAnLW9tYWUnLCAnPG91dGZpbGUubWFlPic=

>  <s_epik_input>  (1) 
Tz1DKFtDSDNdKWMoYzFbT0hdKVtjSF1bY0hdYyhjMTIpYzNjKFtjSF1uMilbQ0gyXVtDSDJdTihbQ0gyXTMpW0NIMl1bQ0gyXVtDSDJdW0NIMl1OKFtDSDJdW09IXSlbQ0BIXShbQ0gzXSlbQ0BASF0oW0NIMl1bTkgyXSlbQ0BIXTRbQ0gyXVtDSF09W0NIXVtDSF09W0NIXTQ=

>  <s_glide_docking_method>  (1) 
confgen

>  <s_i_glide_gridfile>  (1) 
gpcr_drd2_6luq_protein_autoprepared_prepared

>  <s_lp_Force_Field>  (1) 
S-OPLS

>  <s_lp_Variant>  (1) 
DiffSBDD_76_num_sample_100-2

>  <s_m_source_file>  (1) 
generated__ligand_DiffSBDD_2026-05-06_prepared.sdf

>  <GenAI_Model>  (1) 
DiffSBDD

>  <Protein>  (1) 
generic_title2

$$$$
DiffSBDD_91_num_sample_100
     RDKit          3D

  0  0  0  0  0  0  0  0  0  0999 V3000
M  V30 BEGIN CTAB
M  V30 COUNTS 91 94 0 0 1
M  V30 BEGIN ATOM
M  V30 1 C 13.118995 1.209298 -18.131277 0
M  V30 2 C 12.754625 0.352398 -19.188090 0
M  V30 3 O 16.237687 4.807491 -18.920855 0 CHG=-1
M  V30 4 C 6.269173 5.714416 -13.535608 0 CFG=2
M  V30 5 O 14.083226 4.634912 -19.459030 0
M  V30 6 F 5.108189 5.399653 -11.479464 0
M  V30 7 C 10.796393 7.291179 -5.937660 0
M  V30 8 C 15.353949 1.431609 -19.092857 0
M  V30 9 C 12.780100 5.952841 -16.958580 0 CFG=2
M  V30 10 F 6.332924 7.768823 -14.587808 0
M  V30 11 C 6.904844 2.903627 -14.602294 0 CFG=2
M  V30 12 C 7.658940 1.836716 -15.421375 0
M  V30 13 C 14.419753 1.752902 -18.081504 0
M  V30 14 O 8.554713 5.510895 -17.731554 0
M  V30 15 C 9.714384 5.123427 -9.121233 0
M  V30 16 C 7.305232 4.269694 -15.214499 0 CFG=2
M  V30 17 C 15.035495 4.592956 -18.644777 0
M  V30 18 C 8.671793 3.992849 -15.845884 0 CFG=1
M  V30 19 C 13.689742 0.035202 -20.195299 0
M  V30 20 C 9.674040 8.203615 -7.473248 0
M  V30 21 C 7.099023 2.729504 -13.090208 0
M  V30 22 C 14.819535 2.682821 -16.935571 0
M  V30 23 O 16.984070 4.743713 -16.287575 0
M  V30 24 C 8.519234 2.589419 -16.435163 0
M  V30 25 F 5.514239 7.757331 -12.585549 0
M  V30 26 S 9.834852 5.406013 -12.256856 0
M  V30 27 C 10.634592 5.771261 -8.069904 0
M  V30 28 C 6.467413 7.244234 -13.367474 0
M  V30 29 N 8.986191 6.169734 -9.816113 0
M  V30 30 F 8.846368 6.169646 -6.626756 0
M  V30 31 N 8.173422 7.363054 -11.491722 0
M  V30 32 C 15.597510 4.981648 -16.129973 0
M  V30 33 Cl 13.243592 -1.012528 -21.493491 0
M  V30 34 C 9.951721 6.736914 -7.095082 0
M  V30 35 C 6.124883 4.929419 -12.197635 0 CFG=1
M  V30 36 O 7.426482 5.309763 -14.261485 0
M  V30 37 C 12.779215 6.626967 -15.566256 0
M  V30 38 C 10.961514 8.585006 -6.740542 0
M  V30 39 C 14.987038 0.574346 -20.145439 0
M  V30 40 C 9.247072 4.981021 -16.863430 0
M  V30 41 C 14.690067 4.229086 -17.160385 0 CFG=1
M  V30 42 C 11.371364 5.943803 -17.578465 0
M  V30 43 O 10.564506 5.170268 -16.699588 0
M  V30 44 C 7.856148 7.730861 -12.865945 0
M  V30 45 N 13.255838 4.545191 -16.916579 0 CHG=1
M  V30 46 C 5.963627 3.427155 -12.330250 0
M  V30 47 F 5.141940 5.523112 -14.225391 0
M  V30 48 C 8.997059 6.336358 -11.166424 0
M  V30 49 H 12.401509 1.448327 -17.360397 0
M  V30 50 H 11.758563 -0.061660 -19.226689 0
M  V30 51 H 10.223694 7.429805 -5.023135 0
M  V30 52 H 11.721633 6.747361 -5.747430 0
M  V30 53 H 16.349959 1.848313 -19.064480 0
M  V30 54 H 13.421892 6.538034 -17.618161 0
M  V30 55 H 5.835981 2.788491 -14.691031 0
M  V30 56 H 6.975878 1.150362 -15.922270 0
M  V30 57 H 8.301983 1.237965 -14.775909 0
M  V30 58 H 8.963569 4.530125 -8.598209 0
M  V30 59 H 10.233402 4.411446 -9.751816 0
M  V30 60 H 6.613302 4.565748 -16.002219 0
M  V30 61 H 9.375487 3.997989 -15.017051 0
M  V30 62 H 9.677949 8.427730 -8.539202 0
M  V30 63 H 8.778475 8.597099 -6.987801 0
M  V30 64 H 7.040062 1.666267 -12.851580 0
M  V30 65 H 8.084076 3.053127 -12.761216 0
M  V30 66 H 15.834900 2.427518 -16.661392 0
M  V30 67 H 14.241033 2.394864 -16.055882 0
M  V30 68 H 17.181277 4.969605 -17.193686 0
M  V30 69 H 7.989078 2.640721 -17.389212 0
M  V30 70 H 9.475005 2.100012 -16.622550 0
M  V30 71 H 11.114058 4.979592 -7.496840 0
M  V30 72 H 11.434770 6.300366 -8.585981 0
M  V30 73 H 8.399038 6.791885 -9.263084 0
M  V30 74 H 7.663033 7.830541 -10.736122 0
M  V30 75 H 15.304893 4.744783 -15.104730 0
M  V30 76 H 15.482246 6.057850 -16.248413 0
M  V30 77 H 6.955609 5.052043 -11.535913 0
M  V30 78 H 12.634932 7.701915 -15.670729 0
M  V30 79 H 11.985186 6.248219 -14.923022 0
M  V30 80 H 13.708142 6.497259 -15.016443 0
M  V30 81 H 10.897584 9.504316 -6.159050 0
M  V30 82 H 11.836842 8.573982 -7.391300 0
M  V30 83 H 15.701815 0.331916 -20.918266 0
M  V30 84 H 11.034811 6.967655 -17.704701 0
M  V30 85 H 11.382789 5.485251 -18.568396 0
M  V30 86 H 8.634845 7.409818 -13.523360 0
M  V30 87 H 7.875579 8.819842 -12.903767 0
M  V30 88 H 12.803124 4.082753 -17.694697 0
M  V30 89 H 5.034863 3.265216 -12.852263 0
M  V30 90 H 5.842868 2.989764 -11.339475 0
M  V30 91 H 12.941192 4.122055 -16.055612 0
M  V30 END ATOM
M  V30 BEGIN BOND
M  V30 1 2 2 1
M  V30 2 1 12 11
M  V30 3 1 13 1
M  V30 4 2 13 8
M  V30 5 1 16 11
M  V30 6 1 17 3
M  V30 7 2 17 5
M  V30 8 1 18 16
M  V30 9 1 19 2
M  V30 10 1 21 11
M  V30 11 1 22 13
M  V30 12 1 24 12
M  V30 13 1 24 18
M  V30 14 1 27 15
M  V30 15 1 28 4
M  V30 16 1 28 10
M  V30 17 1 28 25
M  V30 18 1 29 15
M  V30 19 1 32 23
M  V30 20 1 33 19
M  V30 21 1 34 7
M  V30 22 1 34 20
M  V30 23 1 34 27
M  V30 24 1 34 30
M  V30 25 1 35 4
M  V30 26 1 35 6
M  V30 27 1 36 4
M  V30 28 1 36 16
M  V30 29 1 37 9
M  V30 30 1 38 7
M  V30 31 1 38 20
M  V30 32 1 39 8
M  V30 33 2 39 19
M  V30 34 2 40 14
M  V30 35 1 40 18
M  V30 36 1 41 17
M  V30 37 1 41 22 CFG=3
M  V30 38 1 41 32
M  V30 39 1 42 9
M  V30 40 1 43 40
M  V30 41 1 43 42
M  V30 42 1 44 28
M  V30 43 1 44 31
M  V30 44 1 45 9
M  V30 45 1 45 41
M  V30 46 1 46 21
M  V30 47 1 46 35
M  V30 48 1 4 47 CFG=3
M  V30 49 2 48 26
M  V30 50 1 48 29
M  V30 51 1 48 31
M  V30 52 1 49 1
M  V30 53 1 50 2
M  V30 54 1 51 7
M  V30 55 1 52 7
M  V30 56 1 53 8
M  V30 57 1 9 54 CFG=3
M  V30 58 1 11 55 CFG=1
M  V30 59 1 56 12
M  V30 60 1 57 12
M  V30 61 1 58 15
M  V30 62 1 59 15
M  V30 63 1 16 60 CFG=3
M  V30 64 1 18 61 CFG=1
M  V30 65 1 62 20
M  V30 66 1 63 20
M  V30 67 1 64 21
M  V30 68 1 65 21
M  V30 69 1 66 22
M  V30 70 1 67 22
M  V30 71 1 68 23
M  V30 72 1 69 24
M  V30 73 1 70 24
M  V30 74 1 71 27
M  V30 75 1 72 27
M  V30 76 1 73 29
M  V30 77 1 74 31
M  V30 78 1 75 32
M  V30 79 1 76 32
M  V30 80 1 35 77 CFG=1
M  V30 81 1 78 37
M  V30 82 1 79 37
M  V30 83 1 80 37
M  V30 84 1 81 38
M  V30 85 1 82 38
M  V30 86 1 83 39
M  V30 87 1 84 42
M  V30 88 1 85 42
M  V30 89 1 86 44
M  V30 90 1 87 44
M  V30 91 1 88 45
M  V30 92 1 89 46
M  V30 93 1 90 46
M  V30 94 1 91 45
M  V30 END BOND
M  V30 END CTAB
M  END
>  <i_epik_Tot_Q>  (1) 
0

>  <i_epik_Tot_abs_Q>  (1) 
2

>  <i_i_glide_confnum>  (1) 
5125

>  <i_i_glide_lignum>  (1) 
185

>  <i_i_glide_posenum>  (1) 
29

>  <i_i_glide_rotatable_bonds>  (1) 
19

>  <i_lp_mmshare_version>  (1) 
72125

>  <i_m_source_file_index>  (1) 
92

>  <i_f3d_flags>  (1) 
0

>  <num_sample>  (1) 
100

>  <b_lp_Chiralities_Consistent>  (1) 
1

>  <r_epik_Charging_Adjusted_Penalty>  (1) 
0.009474757763754324

>  <r_epik_Ionization_Penalty>  (1) 
0.0047391049881846635

>  <r_epik_Ionization_Penalty_Charging>  (1) 
0.0047383734809194307

>  <r_epik_Ionization_Penalty_Neutral>  (1) 
7.3150726523264564e-07

>  <r_epik_State_Penalty>  (1) 
0.0047363842828348933

>  <r_glide_ring_energy>  (1) 
0.6799158544913404

>  <r_i_docking_score>  (1) 
-7.0206253456454872

>  <r_i_glide_ecoul>  (1) 
-10.118724635206046

>  <r_i_glide_eff_state_penalty>  (1) 
0.0047363842828348933

>  <r_i_glide_einternal>  (1) 
7.2525638385660276

>  <r_i_glide_emodel>  (1) 
-49.756347299524833

>  <r_i_glide_emodel_strain>  (1) 
3.1117644649506531

>  <r_i_glide_energy>  (1) 
-34.017820863229375

>  <r_i_glide_erotb>  (1) 
0.42390194326956793

>  <r_i_glide_esite>  (1) 
-0.39714312756912079

>  <r_i_glide_evdw>  (1) 
-23.899096228023325

>  <r_i_glide_gscore>  (1) 
-7.0253617299283224

>  <r_i_glide_gscore_strain>  (1) 
0

>  <r_i_glide_hbond>  (1) 
-0.54799468634610227

>  <r_i_glide_ligand_efficiency>  (1) 
-0.14626302803428098

>  <r_i_glide_ligand_efficiency_ln>  (1) 
-1.4412514141634629

>  <r_i_glide_ligand_efficiency_sa>  (1) 
-0.53155512042215314

>  <r_i_glide_lipo>  (1) 
-2.6557282903042578

>  <r_i_glide_metal>  (1) 
-0

>  <r_i_glide_rewards>  (1) 
-1.1356340622963355

>  <r_lp_Energy>  (1) 
54.172243999999999

>  <s_epik_Chemistry_Notes>  (1) 
This compound has an ester and may undergo hydrolysis at high or low pH.

>  <s_epik_cmdline>  (1) 
J2VwaWtfcHl0aG9uJywgJy1waHQnLCAnMS4wJywgJy1waCcsICc3LjQnLCAnLXRuJywgJzgnLCAnLW1hJywgJzUwMCcsICctaW1hZScsICc8aW5maWxlLm1hZT4nLCAnLW9tYWUnLCAnPG91dGZpbGUubWFlPic=

>  <s_epik_input>  (1) 
W2NIXTFbY0hdYyhDbClbY0hdW2NIXWMxW0NIMl1bQ0BdKEMoPU8pW09IXSkoW0NIMl1bT0hdKVtOSF1bQ0BIXShbQ0gzXSlbQ0gyXU9DKD1PKVtDQEhdKFtDSDJdW0NIMl0yKVtDQEBIXShbQ0BASF0yMylPW0NAQF0oRikoW0NAQEhdKEYpW0NIMl1bQ0gyXTMpQyhGKShGKVtDSDJdW05IXUMoPVMpW05IXVtDSDJdW0NIMl1DNChGKVtDSDJdW0NIMl1bQ0gyXTQ=

>  <s_glide_docking_method>  (1) 
confgen

>  <s_i_glide_gridfile>  (1) 
gpcr_drd2_6luq_protein_autoprepared_prepared

>  <s_lp_Force_Field>  (1) 
S-OPLS

>  <s_lp_Variant>  (1) 
DiffSBDD_91_num_sample_100-1

>  <s_m_source_file>  (1) 
generated__ligand_DiffSBDD_2026-05-06_prepared.sdf

>  <GenAI_Model>  (1) 
DiffSBDD

>  <Protein>  (1) 
generic_title2

$$$$
DiffSBDD_40_num_sample_100
     RDKit          3D

  0  0  0  0  0  0  0  0  0  0999 V3000
M  V30 BEGIN CTAB
M  V30 COUNTS 63 67 0 0 1
M  V30 BEGIN ATOM
M  V30 1 F 12.288291 7.878869 -3.490211 0
M  V30 2 C 8.641113 6.266564 -11.295394 0 CFG=2
M  V30 3 O 5.547261 4.126017 -13.235866 0
M  V30 4 C 7.430159 5.710633 -18.144371 0
M  V30 5 C 8.203982 7.375686 -12.252863 0
M  V30 6 C 6.509196 4.438571 -12.537747 0
M  V30 7 C 8.652567 4.786173 -11.693248 0 CFG=1
M  V30 8 C 10.162330 7.162953 -7.935503 0
M  V30 9 C 7.699860 2.694598 -19.424152 0
M  V30 10 F 13.284651 9.369312 -4.691669 0
M  V30 11 O 8.362881 4.962243 -14.090917 0
M  V30 12 C 5.082956 6.253261 -17.433880 0
M  V30 13 F 11.323310 9.769302 -3.898160 0
M  V30 14 O 7.990198 0.878142 -17.797183 0
M  V30 15 C 11.766876 8.722022 -6.939185 0
M  V30 16 N 9.434838 6.621628 -9.050228 0
M  V30 17 N 8.244519 4.524183 -17.773875 0 CFG=2 CHG=1
M  V30 18 C 12.103038 8.824338 -4.412560 0
M  V30 19 C 10.485346 7.210150 -5.518578 0
M  V30 20 C 7.606428 5.309830 -10.692454 0 CFG=2
M  V30 21 C 9.706344 6.810914 -10.365162 0
M  V30 22 C 8.234840 2.668993 -13.119848 0
M  V30 23 C 7.953161 4.178308 -12.963055 0 CFG=2
M  V30 24 O 10.718383 7.369320 -10.785267 0
M  V30 25 C 7.554277 3.235434 -18.016180 0 CFG=2
M  V30 26 C 6.362178 6.016240 -17.099267 0
M  V30 27 C 6.838825 6.036895 -15.653430 0
M  V30 28 C 8.501983 2.093827 -18.291704 0 CFG=2
M  V30 29 C 9.845137 6.684101 -6.651728 0
M  V30 30 C 7.696011 4.795963 -15.338831 0 CFG=1
M  V30 31 C 11.138506 8.186797 -8.083446 0
M  V30 32 C 8.800509 4.635174 -16.400757 0
M  V30 33 N 6.422718 5.016099 -11.372769 0
M  V30 34 C 11.434838 8.237033 -5.654070 0
M  V30 35 H 8.092696 6.570111 -18.236119 0
M  V30 36 H 6.979108 5.564266 -19.127310 0
M  V30 37 H 7.383835 7.067561 -12.896721 0
M  V30 38 H 7.864625 8.246342 -11.688986 0
M  V30 39 H 9.034827 7.681290 -12.882597 0
M  V30 40 H 9.472090 4.193056 -11.290043 0
M  V30 41 H 8.234881 3.297972 -20.155527 0
M  V30 42 H 6.873427 2.109127 -19.824218 0
M  V30 43 H 4.340346 6.468385 -16.679556 0
M  V30 44 H 4.763295 6.234893 -18.465836 0
M  V30 45 H 8.271700 0.170952 -18.358829 0
M  V30 46 H 12.497309 9.508029 -7.046021 0
M  V30 47 H 8.606374 6.090659 -8.824170 0
M  V30 48 H 10.234837 6.832954 -4.539723 0
M  V30 49 H 7.690648 4.924837 -9.677922 0
M  V30 50 H 7.625901 2.063760 -12.449715 0
M  V30 51 H 8.038761 2.307644 -14.128340 0
M  V30 52 H 9.273456 2.440636 -12.884311 0
M  V30 53 H 6.634846 3.062989 -17.462427 0
M  V30 54 H 7.428022 6.938917 -15.491664 0
M  V30 55 H 5.988415 6.103790 -14.974801 0
M  V30 56 H 9.582145 2.221819 -18.238403 0
M  V30 57 H 9.099466 5.911104 -6.534617 0
M  V30 58 H 7.065207 3.907312 -15.342114 0
M  V30 59 H 11.388940 8.583064 -9.048997 0
M  V30 60 H 9.418259 3.765852 -16.178679 0
M  V30 61 H 9.468182 5.497576 -16.363725 0
M  V30 62 H 5.531050 5.250886 -10.961702 0
M  V30 63 H 9.038192 4.524827 -18.398518 0
M  V30 END ATOM
M  V30 BEGIN BOND
M  V30 1 1 2 5 CFG=3
M  V30 2 2 6 3
M  V30 3 1 7 2
M  V30 4 1 16 8
M  V30 5 1 17 4
M  V30 6 1 18 1
M  V30 7 1 18 10
M  V30 8 1 18 13
M  V30 9 1 20 2
M  V30 10 1 20 7
M  V30 11 1 21 2
M  V30 12 1 21 16
M  V30 13 1 23 6
M  V30 14 1 23 7
M  V30 15 1 23 11 CFG=3
M  V30 16 1 23 22
M  V30 17 2 24 21
M  V30 18 1 25 9
M  V30 19 1 25 17
M  V30 20 1 26 4
M  V30 21 2 26 12
M  V30 22 1 27 26
M  V30 23 1 28 9
M  V30 24 1 28 14
M  V30 25 1 28 25
M  V30 26 1 29 8
M  V30 27 2 29 19
M  V30 28 1 30 11
M  V30 29 1 30 27
M  V30 30 2 31 8
M  V30 31 1 31 15
M  V30 32 1 32 17
M  V30 33 1 32 30
M  V30 34 1 33 6
M  V30 35 1 33 20
M  V30 36 2 34 15
M  V30 37 1 34 18
M  V30 38 1 34 19
M  V30 39 1 35 4
M  V30 40 1 36 4
M  V30 41 1 37 5
M  V30 42 1 38 5
M  V30 43 1 39 5
M  V30 44 1 7 40 CFG=1
M  V30 45 1 41 9
M  V30 46 1 42 9
M  V30 47 1 43 12
M  V30 48 1 44 12
M  V30 49 1 45 14
M  V30 50 1 46 15
M  V30 51 1 47 16
M  V30 52 1 48 19
M  V30 53 1 20 49 CFG=1
M  V30 54 1 50 22
M  V30 55 1 51 22
M  V30 56 1 52 22
M  V30 57 1 25 53 CFG=1
M  V30 58 1 54 27
M  V30 59 1 55 27
M  V30 60 1 28 56 CFG=3
M  V30 61 1 57 29
M  V30 62 1 30 58 CFG=1
M  V30 63 1 59 31
M  V30 64 1 60 32
M  V30 65 1 61 32
M  V30 66 1 62 33
M  V30 67 1 17 63 CFG=3
M  V30 END BOND
M  V30 END CTAB
M  END
>  <i_epik_Tot_Q>  (1) 
1

>  <i_epik_Tot_abs_Q>  (1) 
1

>  <i_i_glide_confnum>  (1) 
34

>  <i_i_glide_lignum>  (1) 
71

>  <i_i_glide_posenum>  (1) 
392

>  <i_i_glide_rotatable_bonds>  (1) 
8

>  <i_lp_mmshare_version>  (1) 
72125

>  <i_m_source_file_index>  (1) 
41

>  <i_f3d_flags>  (1) 
0

>  <num_sample>  (1) 
100

>  <b_lp_Chiralities_Consistent>  (1) 
1

>  <r_epik_Charging_Adjusted_Penalty>  (1) 
0.4978346940249993

>  <r_epik_Ionization_Penalty>  (1) 
0.24891983878036394

>  <r_epik_Ionization_Penalty_Charging>  (1) 
0.24891734701249965

>  <r_epik_Ionization_Penalty_Neutral>  (1) 
2.4917678643056738e-06

>  <r_epik_State_Penalty>  (1) 
0.24891734701249965

>  <r_glide_ring_energy>  (1) 
0

>  <r_i_docking_score>  (1) 
-7.018702213534314

>  <r_i_glide_ecoul>  (1) 
-4.7392476617102988

>  <r_i_glide_eff_state_penalty>  (1) 
0.24891734701249965

>  <r_i_glide_einternal>  (1) 
2.2029387361088979

>  <r_i_glide_emodel>  (1) 
-69.246896288232548

>  <r_i_glide_emodel_strain>  (1) 
1.4825154078365159

>  <r_i_glide_energy>  (1) 
-48.008968999696144

>  <r_i_glide_erotb>  (1) 
0.52699016033767154

>  <r_i_glide_esite>  (1) 
-0.23203433450552036

>  <r_i_glide_evdw>  (1) 
-43.269721337985843

>  <r_i_glide_gscore>  (1) 
-7.2676195605468132

>  <r_i_glide_gscore_strain>  (1) 
0

>  <r_i_glide_hbond>  (1) 
0

>  <r_i_glide_ligand_efficiency>  (1) 
-0.20643241804512688

>  <r_i_glide_ligand_efficiency_ln>  (1) 
-1.5506281868984584

>  <r_i_glide_ligand_efficiency_sa>  (1) 
-0.66876089766524005

>  <r_i_glide_lipo>  (1) 
-2.5861615391630939

>  <r_i_glide_metal>  (1) 
-0

>  <r_i_glide_rewards>  (1) 
-2.1020406310600341

>  <r_lp_Energy>  (1) 
40.196967999999998

>  <s_epik_cmdline>  (1) 
J2VwaWtfcHl0aG9uJywgJy1waHQnLCAnMS4wJywgJy1waCcsICc3LjQnLCAnLXRuJywgJzgnLCAnLW1hJywgJzUwMCcsICctaW1hZScsICc8aW5maWxlLm1hZT4nLCAnLW9tYWUnLCAnPG91dGZpbGUubWFlPic=

>  <s_epik_input>  (1) 
RkMoRikoRiljKFtjSF1bY0hdMSlbY0hdW2NIXWMxW05IXUMoPU8pW0NAXTIoW0NIM10pW0NASF0oW0NASF0yMylbTkhdQyg9TylbQ0BAXTMoW0NIM10pT1tDQEhdKFtDSDJdNClbQ0gyXUMoPVtDSDJdKVtDSDJdTjRbQ0BIXTVbQ0gyXVtDQEBIXTVbT0hd

>  <s_glide_docking_method>  (1) 
confgen

>  <s_i_glide_gridfile>  (1) 
gpcr_drd2_6luq_protein_autoprepared_prepared

>  <s_lp_Force_Field>  (1) 
S-OPLS

>  <s_lp_Variant>  (1) 
DiffSBDD_40_num_sample_100-2

>  <s_m_source_file>  (1) 
generated__ligand_DiffSBDD_2026-05-06_prepared.sdf

>  <GenAI_Model>  (1) 
DiffSBDD

>  <Protein>  (1) 
generic_title2

$$$$
DiffSBDD_29_num_sample_100
     RDKit          3D

  0  0  0  0  0  0  0  0  0  0999 V3000
M  V30 BEGIN CTAB
M  V30 COUNTS 73 77 0 0 1
M  V30 BEGIN ATOM
M  V30 1 F 11.834833 10.854027 -7.090754 0
M  V30 2 O 7.811233 6.170074 -14.790452 0
M  V30 3 N 6.352414 2.995083 -12.417376 0
M  V30 4 C 7.557364 1.453323 -17.203072 0
M  V30 5 N 11.412901 9.770715 -4.832507 0
M  V30 6 C 12.364917 8.931206 -2.712219 0
M  V30 7 C 8.388639 5.892533 -12.457987 0 CFG=1
M  V30 8 C 12.303213 6.505337 -2.411992 0
M  V30 9 C 11.778837 8.746151 -3.967388 0
M  V30 10 C 5.909820 3.913928 -11.444995 0
M  V30 11 C 7.363359 3.345200 -15.413520 0
M  V30 12 N 8.635016 6.169194 -10.020765 0
M  V30 13 C 5.939884 -0.197130 -16.165846 0 CFG=1
M  V30 14 O 4.608210 -0.647674 -16.245034 0
M  V30 15 O 7.835150 5.369301 -7.647072 0
M  V30 16 C 8.067920 1.409643 -13.309297 0
M  V30 17 C 7.672330 0.915794 -14.709546 0 CFG=2
M  V30 18 C 10.888578 9.123024 -6.113256 0 CFG=2
M  V30 19 C 10.517725 6.610601 -6.485100 0
M  V30 20 C 9.915506 5.890207 -12.687047 0
M  V30 21 C 6.613604 4.909933 -10.834628 0
M  V30 22 C 7.599732 5.318756 -13.686056 0 CFG=2
M  V30 23 N 9.976859 6.771038 -7.775793 0
M  V30 24 C 11.722400 6.372881 -3.695645 0
M  V30 25 C 10.937120 7.635463 -5.719713 0
M  V30 26 C 7.953873 1.969735 -15.805515 0 CFG=1
M  V30 27 C 12.634437 7.794741 -1.920025 0
M  V30 28 C 6.147202 0.869621 -17.246986 0
M  V30 29 F 13.025984 9.013413 -7.095183 0
M  V30 30 C 7.704256 2.866020 -12.951616 0 CFG=1
M  V30 31 C 6.239458 0.361986 -14.763327 0
M  V30 32 C 8.087647 5.264668 -11.058462 0 CFG=1
M  V30 33 C 7.972834 3.863889 -14.087975 0 CFG=1
M  V30 34 C 11.804845 9.530839 -7.238132 0
M  V30 35 C 11.482564 7.529009 -4.437331 0
M  V30 36 O 9.859842 4.322540 -8.691568 0
M  V30 37 S 9.030541 5.503343 -8.472806 0
M  V30 38 H 7.508051 7.034418 -14.555211 0
M  V30 39 H 7.641901 2.245522 -17.944617 0
M  V30 40 H 8.261928 0.678140 -17.509622 0
M  V30 41 H 11.986323 10.595425 -4.902835 0
M  V30 42 H 12.589052 9.920375 -2.353730 0
M  V30 43 H 8.081436 6.937687 -12.392446 0
M  V30 44 H 12.496862 5.629596 -1.811493 0
M  V30 45 H 4.872380 3.773174 -11.198497 0
M  V30 46 H 7.543774 4.059602 -16.216935 0
M  V30 47 H 6.285708 3.279600 -15.299172 0
M  V30 48 H 7.937654 6.922380 -9.861499 0
M  V30 49 H 6.588908 -1.057180 -16.352748 0
M  V30 50 H 4.029710 0.062909 -16.027080 0
M  V30 51 H 7.697754 0.732110 -12.539455 0
M  V30 52 H 9.154193 1.336628 -13.236319 0
M  V30 53 H 8.315509 0.062211 -14.913585 0
M  V30 54 H 9.850250 9.394773 -6.313276 0
M  V30 55 H 10.561991 5.586339 -6.161294 0
M  V30 56 H 10.345004 4.928468 -12.409900 0
M  V30 57 H 10.414052 6.659020 -12.094762 0
M  V30 58 H 10.190988 6.062358 -13.724208 0
M  V30 59 H 6.526277 5.400715 -13.509141 0
M  V30 60 H 9.736770 7.716529 -8.078533 0
M  V30 61 H 11.470922 5.403797 -4.093291 0
M  V30 62 H 9.030759 2.105856 -15.890396 0
M  V30 63 H 13.074367 7.910957 -0.945307 0
M  V30 64 H 5.945780 0.433401 -18.225408 0
M  V30 65 H 5.437274 1.682604 -17.106458 0
M  V30 66 H 8.422666 3.016178 -12.169562 0
M  V30 67 H 5.524788 1.132999 -14.484125 0
M  V30 68 H 6.121445 -0.429980 -14.020877 0
M  V30 69 H 8.663125 4.365044 -10.898008 0
M  V30 70 H 9.040275 3.878229 -14.251503 0
M  V30 71 H 11.418327 9.266940 -8.219600 0
M  V30 72 H 6.097626 5.524975 -10.111638 0
M  V30 73 H 5.687103 2.309749 -12.748845 0
M  V30 END ATOM
M  V30 BEGIN BOND
M  V30 1 1 9 5
M  V30 2 2 9 6
M  V30 3 1 10 3
M  V30 4 1 14 13
M  V30 5 1 17 16
M  V30 6 1 18 5
M  V30 7 1 20 7
M  V30 8 2 21 10
M  V30 9 1 22 2
M  V30 10 1 22 7
M  V30 11 1 23 19
M  V30 12 1 24 8
M  V30 13 1 25 18
M  V30 14 2 25 19
M  V30 15 1 26 4
M  V30 16 1 26 11
M  V30 17 1 26 17
M  V30 18 1 27 6
M  V30 19 2 27 8
M  V30 20 1 28 4
M  V30 21 1 28 13
M  V30 22 1 30 3
M  V30 23 1 30 16
M  V30 24 1 31 13
M  V30 25 1 31 17
M  V30 26 1 32 7
M  V30 27 1 32 12
M  V30 28 1 32 21
M  V30 29 1 33 11
M  V30 30 1 33 22
M  V30 31 1 33 30
M  V30 32 1 34 1
M  V30 33 1 34 18
M  V30 34 1 34 29
M  V30 35 1 35 9
M  V30 36 2 35 24
M  V30 37 1 35 25
M  V30 38 1 37 12
M  V30 39 2 37 15
M  V30 40 1 37 23
M  V30 41 2 37 36
M  V30 42 1 38 2
M  V30 43 1 39 4
M  V30 44 1 40 4
M  V30 45 1 41 5
M  V30 46 1 42 6
M  V30 47 1 7 43 CFG=1
M  V30 48 1 44 8
M  V30 49 1 45 10
M  V30 50 1 46 11
M  V30 51 1 47 11
M  V30 52 1 48 12
M  V30 53 1 13 49 CFG=3
M  V30 54 1 50 14
M  V30 55 1 51 16
M  V30 56 1 52 16
M  V30 57 1 17 53 CFG=3
M  V30 58 1 18 54 CFG=3
M  V30 59 1 55 19
M  V30 60 1 56 20
M  V30 61 1 57 20
M  V30 62 1 58 20
M  V30 63 1 22 59 CFG=1
M  V30 64 1 60 23
M  V30 65 1 61 24
M  V30 66 1 26 62 CFG=3
M  V30 67 1 63 27
M  V30 68 1 64 28
M  V30 69 1 65 28
M  V30 70 1 30 66 CFG=1
M  V30 71 1 67 31
M  V30 72 1 68 31
M  V30 73 1 32 69 CFG=3
M  V30 74 1 33 70 CFG=3
M  V30 75 1 71 34
M  V30 76 1 72 21
M  V30 77 1 73 3
M  V30 END BOND
M  V30 END CTAB
M  END
>  <i_epik_Tot_Q>  (1) 
0

>  <i_epik_Tot_abs_Q>  (1) 
0

>  <i_i_glide_confnum>  (1) 
52

>  <i_i_glide_lignum>  (1) 
51

>  <i_i_glide_posenum>  (1) 
354

>  <i_i_glide_rotatable_bonds>  (1) 
7

>  <i_lp_mmshare_version>  (1) 
72125

>  <i_m_source_file_index>  (1) 
30

>  <i_f3d_flags>  (1) 
0

>  <num_sample>  (1) 
100

>  <b_lp_Chiralities_Consistent>  (1) 
1

>  <r_epik_Charging_Adjusted_Penalty>  (1) 
1.5459132844328078e-07

>  <r_epik_Ionization_Penalty>  (1) 
1.5952634643945804

>  <r_epik_Ionization_Penalty_Charging>  (1) 
1.5459132844328078e-07

>  <r_epik_Ionization_Penalty_Neutral>  (1) 
1.595263309803252

>  <r_epik_State_Penalty>  (1) 
-0

>  <r_glide_ring_energy>  (1) 
0

>  <r_i_docking_score>  (1) 
-7.0173883280185834

>  <r_i_glide_ecoul>  (1) 
-8.614080380577164

>  <r_i_glide_eff_state_penalty>  (1) 
-0

>  <r_i_glide_einternal>  (1) 
6.7261959058220446

>  <r_i_glide_emodel>  (1) 
-42.712949957859202

>  <r_i_glide_emodel_strain>  (1) 
1.6031117918439008

>  <r_i_glide_energy>  (1) 
-36.841886046997331

>  <r_i_glide_erotb>  (1) 
0.28486469644810641

>  <r_i_glide_esite>  (1) 
-0.19686136573679125

>  <r_i_glide_evdw>  (1) 
-28.227805666420167

>  <r_i_glide_gscore>  (1) 
-7.0173883280185834

>  <r_i_glide_gscore_strain>  (1) 
0

>  <r_i_glide_hbond>  (1) 
-0.1237856879780915

>  <r_i_glide_ligand_efficiency>  (1) 
-0.18965914400050227

>  <r_i_glide_ligand_efficiency_ln>  (1) 
-1.5219070174238518

>  <r_i_glide_ligand_efficiency_sa>  (1) 
-0.63198634400294018

>  <r_i_glide_lipo>  (1) 
-3.7295883780677488

>  <r_i_glide_metal>  (1) 
-0

>  <r_i_glide_rewards>  (1) 
-0.54851525227647557

>  <r_lp_Energy>  (1) 
36.760202

>  <r_lp_tautomer_probability>  (1) 
1

>  <s_epik_Chemistry_Notes>  (1) 
This compound has an imine and may undergo hydrolysis.

>  <s_epik_cmdline>  (1) 
J2VwaWtfcHl0aG9uJywgJy1waHQnLCAnMS4wJywgJy1waCcsICc3LjQnLCAnLXRuJywgJzgnLCAnLW1hJywgJzUwMCcsICctaW1hZScsICc8aW5maWxlLm1hZT4nLCAnLW9tYWUnLCAnPG91dGZpbGUubWFlPic=

>  <s_epik_input>  (1) 
W2NIXTFbY0hdW2NIXVtjSF1jKGMxMilDKFxbQ0BASF0oW05IXTIpW0NIXShGKUYpPVtDSF1cW05IXVMoPU8pKD1PKVtOSF1bQ0BIXShbQ0BASF0oW0NIM10pW0NASF0zW09IXSlbQ0gyXVxbQ0hdPU5cW0NAQEhdKFtDSDJdNClbQ0BIXTNbQ0gyXVtDQEBIXShbQ0BASF00NSlbQ0gyXVtDSDJdW0NASF0oW09IXSlbQ0gyXTU=

>  <s_glide_docking_method>  (1) 
confgen

>  <s_i_glide_gridfile>  (1) 
gpcr_drd2_6luq_protein_autoprepared_prepared

>  <s_lp_Force_Field>  (1) 
S-OPLS

>  <s_lp_Variant>  (1) 
DiffSBDD_29_num_sample_100-1

>  <s_m_source_file>  (1) 
generated__ligand_DiffSBDD_2026-05-06_prepared.sdf

>  <GenAI_Model>  (1) 
DiffSBDD

>  <Protein>  (1) 
generic_title2

$$$$
DiffSBDD_55_num_sample_100
     RDKit          3D

  0  0  0  0  0  0  0  0  0  0999 V3000
M  V30 BEGIN CTAB
M  V30 COUNTS 51 54 0 0 1
M  V30 BEGIN ATOM
M  V30 1 O 6.609149 4.169329 -11.292769 0
M  V30 2 C 12.207517 9.291394 -3.861800 0
M  V30 3 C 9.448744 7.590255 -11.143962 0
M  V30 4 C 11.594120 8.507033 -9.000253 0
M  V30 5 C 9.272145 4.897361 -10.221472 0 CFG=2
M  V30 6 C 8.816048 5.207274 -11.651442 0 CFG=1
M  V30 7 S 11.434809 6.794926 -4.691660 0
M  V30 8 C 12.255777 7.820770 -3.442102 0
M  V30 9 C 11.780887 9.369263 -5.319926 0
M  V30 10 C 5.906605 4.980629 -13.420879 0
M  V30 11 N 9.434840 7.375961 -9.688059 0 CFG=2 CHG=1
M  V30 12 C 7.765545 4.168043 -12.119058 0 CFG=2
M  V30 13 C 8.390163 6.680307 -11.768235 0 CFG=2
M  V30 14 C 7.233621 4.255774 -13.552042 0
M  V30 15 C 5.518557 4.797729 -11.955689 0
M  V30 16 C 9.814297 8.301783 -6.312525 0
M  V30 17 C 10.056411 8.447493 -8.879490 0 CFG=1
M  V30 18 C 11.268546 8.080126 -5.955411 0 CFG=2
M  V30 19 C 8.477902 5.205772 -8.970816 0
M  V30 20 O 11.834888 10.422036 -5.950496 0
M  V30 21 O 8.234844 7.094845 -13.091675 0
M  V30 22 C 9.300889 8.466757 -7.546983 0
M  V30 23 C 9.739387 5.987010 -9.267147 0 CFG=1
M  V30 24 H 11.479891 9.836270 -3.259606 0
M  V30 25 H 13.177294 9.769116 -3.724278 0
M  V30 26 H 10.440688 7.401656 -11.557368 0
M  V30 27 H 9.193364 8.627019 -11.360153 0
M  V30 28 H 12.017371 9.297409 -8.382159 0
M  V30 29 H 12.086014 7.563660 -8.770212 0
M  V30 30 H 11.879592 8.747467 -10.024370 0
M  V30 31 H 9.831865 3.965840 -10.168967 0
M  V30 32 H 9.696485 5.076573 -12.283011 0
M  V30 33 H 11.786938 7.672827 -2.469374 0
M  V30 34 H 13.291116 7.493183 -3.348576 0
M  V30 35 H 5.154135 4.572560 -14.093234 0
M  V30 36 H 6.000375 6.039750 -13.655402 0
M  V30 37 H 8.240911 3.192892 -12.010957 0
M  V30 38 H 7.427089 6.818625 -11.283453 0
M  V30 39 H 7.925588 4.730642 -14.248120 0
M  V30 40 H 7.045521 3.247369 -13.923231 0
M  V30 41 H 4.634845 4.169363 -11.880129 0
M  V30 42 H 5.288560 5.753363 -11.482735 0
M  V30 43 H 9.138906 8.329380 -5.491667 0
M  V30 44 H 9.709409 9.369311 -9.332956 0
M  V30 45 H 11.904645 7.787649 -6.774794 0
M  V30 46 H 8.520734 4.488384 -8.154801 0
M  V30 47 H 7.514555 5.696221 -9.092806 0
M  V30 48 H 7.755890 7.910134 -13.106335 0
M  V30 49 H 8.238626 8.628257 -7.624165 0
M  V30 50 H 10.624900 5.834694 -8.653423 0
M  V30 51 H 8.431407 7.487039 -9.491619 0
M  V30 END ATOM
M  V30 BEGIN BOND
M  V30 1 1 6 5
M  V30 2 1 8 2
M  V30 3 1 8 7
M  V30 4 1 9 2
M  V30 5 1 11 3
M  V30 6 1 12 1
M  V30 7 1 12 6
M  V30 8 1 13 3
M  V30 9 1 13 6
M  V30 10 1 14 10
M  V30 11 1 14 12
M  V30 12 1 15 1
M  V30 13 1 15 10
M  V30 14 1 17 4
M  V30 15 1 17 11
M  V30 16 1 18 7
M  V30 17 1 18 9
M  V30 18 1 18 16
M  V30 19 1 19 5
M  V30 20 2 20 9
M  V30 21 1 21 13
M  V30 22 2 22 16
M  V30 23 1 22 17
M  V30 24 1 23 5
M  V30 25 1 23 11
M  V30 26 1 23 19
M  V30 27 1 24 2
M  V30 28 1 25 2
M  V30 29 1 26 3
M  V30 30 1 27 3
M  V30 31 1 28 4
M  V30 32 1 29 4
M  V30 33 1 30 4
M  V30 34 1 5 31 CFG=3
M  V30 35 1 6 32 CFG=3
M  V30 36 1 33 8
M  V30 37 1 34 8
M  V30 38 1 35 10
M  V30 39 1 36 10
M  V30 40 1 12 37 CFG=3
M  V30 41 1 13 38 CFG=1
M  V30 42 1 39 14
M  V30 43 1 40 14
M  V30 44 1 41 15
M  V30 45 1 42 15
M  V30 46 1 43 16
M  V30 47 1 17 44 CFG=3
M  V30 48 1 18 45 CFG=3
M  V30 49 1 46 19
M  V30 50 1 47 19
M  V30 51 1 48 21
M  V30 52 1 49 22
M  V30 53 1 23 50 CFG=1
M  V30 54 1 11 51 CFG=1
M  V30 END BOND
M  V30 END CTAB
M  END
>  <i_epik_Tot_Q>  (1) 
1

>  <i_epik_Tot_abs_Q>  (1) 
1

>  <i_i_glide_confnum>  (1) 
181

>  <i_i_glide_lignum>  (1) 
106

>  <i_i_glide_posenum>  (1) 
178

>  <i_i_glide_rotatable_bonds>  (1) 
5

>  <i_lp_mmshare_version>  (1) 
72125

>  <i_m_source_file_index>  (1) 
56

>  <i_f3d_flags>  (1) 
0

>  <num_sample>  (1) 
100

>  <b_lp_Chiralities_Consistent>  (1) 
1

>  <r_epik_Charging_Adjusted_Penalty>  (1) 
0.1887110856522376

>  <r_epik_Ionization_Penalty>  (1) 
0.094355642401006162

>  <r_epik_Ionization_Penalty_Charging>  (1) 
0.094355542826118813

>  <r_epik_Ionization_Penalty_Neutral>  (1) 
9.9574887353862298e-08

>  <r_epik_State_Penalty>  (1) 
0.094355542826118799

>  <r_glide_ring_energy>  (1) 
1.5489933511600484

>  <r_i_docking_score>  (1) 
-7.0112909010540685

>  <r_i_glide_ecoul>  (1) 
-5.9790403116874558

>  <r_i_glide_eff_state_penalty>  (1) 
0.094355542826118799

>  <r_i_glide_einternal>  (1) 
4.0908796809122663

>  <r_i_glide_emodel>  (1) 
-54.956782845003126

>  <r_i_glide_emodel_strain>  (1) 
2.4430430206820546

>  <r_i_glide_energy>  (1) 
-40.628861767552735

>  <r_i_glide_erotb>  (1) 
0.49519417565235591

>  <r_i_glide_esite>  (1) 
-0.10000000000000001

>  <r_i_glide_evdw>  (1) 
-34.649821455865279

>  <r_i_glide_gscore>  (1) 
-7.105646443880187

>  <r_i_glide_gscore_strain>  (1) 
0

>  <r_i_glide_hbond>  (1) 
-0.20000000000000001

>  <r_i_glide_ligand_efficiency>  (1) 
-0.30483873482843776

>  <r_i_glide_ligand_efficiency_ln>  (1) 
-1.6953937147458431

>  <r_i_glide_ligand_efficiency_sa>  (1) 
-0.86692081215832151

>  <r_i_glide_lipo>  (1) 
-2.2203077727134319

>  <r_i_glide_metal>  (1) 
-0

>  <r_i_glide_rewards>  (1) 
-2.4511857272727284

>  <r_lp_Energy>  (1) 
23.659068999999999

>  <r_lp_tautomer_probability>  (1) 
0.99995000000000001

>  <s_epik_cmdline>  (1) 
J2VwaWtfcHl0aG9uJywgJy1waHQnLCAnMS4wJywgJy1waCcsICc3LjQnLCAnLXRuJywgJzgnLCAnLW1hJywgJzUwMCcsICctaW1hZScsICc8aW5maWxlLm1hZT4nLCAnLW9tYWUnLCAnPG91dGZpbGUubWFlPic=

>  <s_epik_input>  (1) 
W0NIMl0xW0NIMl1bQ0gyXU9bQ0BASF0xW0NASF0yW0NASF0oW09IXSlbQ0gyXU4oW0NASF0oW0NASF0yMylbQ0gyXTMpW0NASF0oW0NIM10pL1tDSF09W0NIXVxbQ0BASF00U1tDSDJdW0NIMl1DND1P

>  <s_glide_docking_method>  (1) 
confgen

>  <s_i_glide_gridfile>  (1) 
gpcr_drd2_6luq_protein_autoprepared_prepared

>  <s_lp_Force_Field>  (1) 
S-OPLS

>  <s_lp_Variant>  (1) 
DiffSBDD_55_num_sample_100-7

>  <s_m_source_file>  (1) 
generated__ligand_DiffSBDD_2026-05-06_prepared.sdf

>  <GenAI_Model>  (1) 
DiffSBDD

>  <Protein>  (1) 
generic_title2

$$$$
DiffSBDD_83_num_sample_100
     RDKit          3D

  0  0  0  0  0  0  0  0  0  0999 V3000
M  V30 BEGIN CTAB
M  V30 COUNTS 49 53 0 0 1
M  V30 BEGIN ATOM
M  V30 1 C 7.655227 5.725413 -13.071548 0
M  V30 2 C 11.113150 10.169372 -4.657215 0
M  V30 3 C 11.422847 7.760919 -4.980823 0 CFG=1
M  V30 4 C 10.287583 6.498337 -7.543975 0
M  V30 5 C 11.649131 8.272442 -6.400443 0 CFG=2
M  V30 6 N 8.634839 6.169301 -9.661075 0 CHG=1
M  V30 7 C 12.205683 8.156676 -3.743236 0
M  V30 8 C 7.829170 3.384223 -13.749428 0
M  V30 9 C 10.698702 8.985658 -5.491473 0 CFG=2
M  V30 10 C 11.096478 7.550791 -7.579390 0
M  V30 11 C 7.440353 2.248561 -14.690353 0
M  V30 12 C 8.940353 6.613287 -11.064737 0 CFG=1
M  V30 13 C 9.101108 4.197172 -11.834237 0
M  V30 14 C 11.294919 7.876410 -8.895035 0
M  V30 15 C 7.290405 4.675093 -13.938222 0
M  V30 16 C 11.787006 9.588150 -3.403967 0
M  V30 17 C 10.422725 7.106444 -11.123721 0
M  V30 18 C 8.733664 3.150679 -12.692827 0
M  V30 19 C 10.634677 7.020429 -9.658717 0
M  V30 20 C 7.034417 0.942015 -13.985060 0
M  V30 21 O 5.845196 1.144917 -13.257215 0
M  V30 22 C 9.873563 5.902011 -8.937444 0 CFG=1
M  V30 23 C 8.562429 5.487283 -12.016665 0
M  V30 24 H 7.237283 6.711768 -13.215033 0
M  V30 25 H 11.807394 10.777201 -5.237594 0
M  V30 26 H 10.251768 10.786786 -4.402832 0
M  V30 27 H 10.830151 6.859220 -4.848416 0
M  V30 28 H 9.946208 6.034534 -6.631195 0
M  V30 29 H 12.577112 8.795512 -6.628246 0
M  V30 30 H 8.067271 6.928848 -9.259363 0
M  V30 31 H 13.281432 8.088727 -3.891977 0
M  V30 32 H 11.962399 7.480423 -2.922540 0
M  V30 33 H 9.645217 8.900677 -5.746199 0
M  V30 34 H 8.289654 2.048340 -15.343083 0
M  V30 35 H 6.634827 2.574267 -15.348061 0
M  V30 36 H 8.285607 7.462498 -11.265901 0
M  V30 37 H 9.794655 4.007771 -11.032190 0
M  V30 38 H 11.836342 8.742786 -9.248652 0
M  V30 39 H 6.597358 4.859634 -14.746351 0
M  V30 40 H 12.635915 10.169213 -3.054590 0
M  V30 41 H 11.065607 9.566840 -2.589437 0
M  V30 42 H 11.065822 6.440559 -11.695138 0
M  V30 43 H 10.512964 8.125614 -11.491658 0
M  V30 44 H 9.152900 2.167274 -12.545783 0
M  V30 45 H 7.817416 0.567460 -13.325889 0
M  V30 46 H 6.850987 0.160476 -14.723398 0
M  V30 47 H 5.996317 1.837547 -12.632194 0
M  V30 48 H 10.234856 4.893415 -9.103763 0
M  V30 49 H 8.046392 5.350083 -9.684387 0
M  V30 END ATOM
M  V30 BEGIN BOND
M  V30 1 1 5 3
M  V30 2 1 7 3
M  V30 3 1 9 2
M  V30 4 1 9 3
M  V30 5 1 9 5
M  V30 6 2 10 4
M  V30 7 1 10 5
M  V30 8 1 11 8
M  V30 9 1 12 6
M  V30 10 1 14 10
M  V30 11 2 15 1
M  V30 12 1 15 8
M  V30 13 1 16 2
M  V30 14 1 16 7
M  V30 15 1 17 12
M  V30 16 2 18 8
M  V30 17 1 18 13
M  V30 18 2 19 14
M  V30 19 1 19 17
M  V30 20 1 20 11
M  V30 21 1 21 20
M  V30 22 1 22 4
M  V30 23 1 22 6
M  V30 24 1 22 19
M  V30 25 1 23 1
M  V30 26 1 23 12
M  V30 27 2 23 13
M  V30 28 1 24 1
M  V30 29 1 25 2
M  V30 30 1 26 2
M  V30 31 1 3 27 CFG=3
M  V30 32 1 28 4
M  V30 33 1 5 29 CFG=3
M  V30 34 1 30 6
M  V30 35 1 31 7
M  V30 36 1 32 7
M  V30 37 1 9 33 CFG=3
M  V30 38 1 34 11
M  V30 39 1 35 11
M  V30 40 1 12 36 CFG=3
M  V30 41 1 37 13
M  V30 42 1 38 14
M  V30 43 1 39 15
M  V30 44 1 40 16
M  V30 45 1 41 16
M  V30 46 1 42 17
M  V30 47 1 43 17
M  V30 48 1 44 18
M  V30 49 1 45 20
M  V30 50 1 46 20
M  V30 51 1 47 21
M  V30 52 1 22 48 CFG=3
M  V30 53 1 49 6
M  V30 END BOND
M  V30 END CTAB
M  END
>  <i_epik_Tot_Q>  (1) 
1

>  <i_epik_Tot_abs_Q>  (1) 
1

>  <i_i_glide_confnum>  (1) 
166

>  <i_i_glide_lignum>  (1) 
170

>  <i_i_glide_posenum>  (1) 
24

>  <i_i_glide_rotatable_bonds>  (1) 
5

>  <i_lp_mmshare_version>  (1) 
72125

>  <i_m_source_file_index>  (1) 
84

>  <i_f3d_flags>  (1) 
0

>  <num_sample>  (1) 
100

>  <b_lp_Chiralities_Consistent>  (1) 
1

>  <r_epik_Charging_Adjusted_Penalty>  (1) 
0.3591125196210796

>  <r_epik_Ionization_Penalty>  (1) 
0.17955633890062345

>  <r_epik_Ionization_Penalty_Charging>  (1) 
0.1795562598105398

>  <r_epik_Ionization_Penalty_Neutral>  (1) 
7.9090083639956194e-08

>  <r_epik_State_Penalty>  (1) 
0.1795562598105398

>  <r_glide_ring_energy>  (1) 
1.4396960314071907

>  <r_i_docking_score>  (1) 
-7.0074602998825881

>  <r_i_glide_ecoul>  (1) 
-7.774640911645549

>  <r_i_glide_eff_state_penalty>  (1) 
0.1795562598105398

>  <r_i_glide_einternal>  (1) 
1.7132625480831893

>  <r_i_glide_emodel>  (1) 
-54.018460315751007

>  <r_i_glide_emodel_strain>  (1) 
0.16125042735120587

>  <r_i_glide_energy>  (1) 
-36.396263101285861

>  <r_i_glide_erotb>  (1) 
0.77787292059137758

>  <r_i_glide_esite>  (1) 
-0.094112438297146661

>  <r_i_glide_evdw>  (1) 
-28.621622189640313

>  <r_i_glide_gscore>  (1) 
-7.1870165596931281

>  <r_i_glide_gscore_strain>  (1) 
0

>  <r_i_glide_hbond>  (1) 
-0.16219586317360524

>  <r_i_glide_ligand_efficiency>  (1) 
-0.3046721869514169

>  <r_i_glide_ligand_efficiency_ln>  (1) 
-1.694467440648608

>  <r_i_glide_ligand_efficiency_sa>  (1) 
-0.86644717215029743

>  <r_i_glide_lipo>  (1) 
-2.9052639553121771

>  <r_i_glide_metal>  (1) 
-0

>  <r_i_glide_rewards>  (1) 
-2.2060399772727286

>  <r_lp_Energy>  (1) 
32.732737999999998

>  <s_epik_cmdline>  (1) 
J2VwaWtfcHl0aG9uJywgJy1waHQnLCAnMS4wJywgJy1waCcsICc3LjQnLCAnLXRuJywgJzgnLCAnLW1hJywgJzUwMCcsICctaW1hZScsICc8aW5maWxlLm1hZT4nLCAnLW9tYWUnLCAnPG91dGZpbGUubWFlPic=

>  <s_epik_input>  (1) 
W09IXVtDSDJdW0NIMl1jMVtjSF1bY0hdYyhbY0hdW2NIXTEpW0NASF0oW0NIMl0yKVtOSF1bQ0BIXShDMjMpW0NIXT1DKFtDSF09MylbQ0BIXTRbQ0BASF0oW0NAQEhdNDUpW0NIMl1bQ0gyXVtDSDJdNQ==

>  <s_glide_docking_method>  (1) 
confgen

>  <s_i_glide_gridfile>  (1) 
gpcr_drd2_6luq_protein_autoprepared_prepared

>  <s_lp_Force_Field>  (1) 
S-OPLS

>  <s_lp_Variant>  (1) 
DiffSBDD_83_num_sample_100-2

>  <s_m_source_file>  (1) 
generated__ligand_DiffSBDD_2026-05-06_prepared.sdf

>  <GenAI_Model>  (1) 
DiffSBDD

>  <Protein>  (1) 
generic_title2

$$$$
DiffSBDD_55_num_sample_100
     RDKit          3D

  0  0  0  0  0  0  0  0  0  0999 V3000
M  V30 BEGIN CTAB
M  V30 COUNTS 51 54 0 0 1
M  V30 BEGIN ATOM
M  V30 1 O 7.899487 2.630660 -13.238654 0
M  V30 2 C 12.079015 9.369307 -6.586343 0
M  V30 3 C 7.754370 4.842878 -11.080267 0
M  V30 4 C 10.338805 6.122131 -12.435217 0
M  V30 5 C 6.314576 5.461411 -13.524769 0 CFG=2
M  V30 6 C 5.977928 4.170084 -12.787609 0 CFG=1
M  V30 7 S 9.658851 8.169456 -6.678085 0
M  V30 8 C 11.005324 8.821578 -5.647602 0
M  V30 9 C 12.016996 8.486818 -7.823095 0
M  V30 10 C 6.890271 0.527488 -13.576970 0
M  V30 11 N 7.923306 6.219940 -11.619389 0 CFG=1 CHG=1
M  V30 12 C 6.529448 2.894717 -13.496046 0 CFG=2
M  V30 13 C 6.332902 4.313712 -11.300078 0 CFG=2
M  V30 14 C 5.897309 1.562304 -13.091667 0
M  V30 15 C 8.197501 1.311109 -13.686060 0
M  V30 16 C 10.194569 7.738800 -9.354593 0
M  V30 17 C 9.303660 6.786170 -11.512578 0 CFG=1
M  V30 18 C 10.777064 7.619491 -7.968329 0 CFG=2
M  V30 19 C 7.687607 5.688706 -14.113449 0
M  V30 20 O 12.921944 8.471450 -8.655106 0
M  V30 21 O 5.434831 5.213070 -10.691668 0
M  V30 22 C 9.862482 6.685257 -10.108611 0
M  V30 23 C 7.254461 6.521503 -12.931503 0 CFG=1
M  V30 24 H 11.834832 10.391256 -6.875201 0
M  V30 25 H 13.070569 9.369336 -6.132883 0
M  V30 26 H 7.942725 4.850093 -10.006620 0
M  V30 27 H 8.491848 4.169474 -11.510427 0
M  V30 28 H 11.315022 6.595055 -12.319473 0
M  V30 29 H 10.470513 5.066411 -12.199470 0
M  V30 30 H 10.106761 6.169299 -13.491657 0
M  V30 31 H 5.493874 5.834400 -14.134952 0
M  V30 32 H 4.891870 4.077771 -12.846332 0
M  V30 33 H 10.634910 9.589751 -4.969831 0
M  V30 34 H 11.410708 8.010717 -5.040929 0
M  V30 35 H 6.599547 0.125545 -14.548267 0
M  V30 36 H 6.963379 -0.304355 -12.876442 0
M  V30 37 H 6.409764 3.014927 -14.574587 0
M  V30 38 H 6.202820 3.369304 -10.784882 0
M  V30 39 H 5.834849 1.486739 -12.006518 0
M  V30 40 H 4.895025 1.412374 -13.491659 0
M  V30 41 H 8.532051 1.349158 -14.723508 0
M  V30 42 H 8.998795 0.871229 -13.091690 0
M  V30 43 H 10.054075 8.739393 -9.737618 0
M  V30 44 H 9.237606 7.843029 -11.777684 0
M  V30 45 H 11.055780 6.584551 -7.768406 0
M  V30 46 H 7.734078 6.182869 -15.081834 0
M  V30 47 H 8.417953 4.897517 -13.976173 0
M  V30 48 H 5.425534 5.059223 -9.749387 0
M  V30 49 H 10.002209 5.689475 -9.714693 0
M  V30 50 H 7.040561 7.577652 -13.083962 0
M  V30 51 H 7.392058 6.773673 -10.947034 0
M  V30 END ATOM
M  V30 BEGIN BOND
M  V30 1 1 6 5
M  V30 2 1 8 2
M  V30 3 1 8 7
M  V30 4 1 9 2
M  V30 5 1 11 3
M  V30 6 1 12 1
M  V30 7 1 12 6
M  V30 8 1 13 3
M  V30 9 1 13 6
M  V30 10 1 14 10
M  V30 11 1 14 12
M  V30 12 1 15 1
M  V30 13 1 15 10
M  V30 14 1 17 4
M  V30 15 1 17 11
M  V30 16 1 18 7
M  V30 17 1 18 9
M  V30 18 1 18 16
M  V30 19 1 19 5
M  V30 20 2 20 9
M  V30 21 1 21 13
M  V30 22 2 22 16
M  V30 23 1 22 17
M  V30 24 1 23 5
M  V30 25 1 23 11
M  V30 26 1 23 19
M  V30 27 1 24 2
M  V30 28 1 25 2
M  V30 29 1 26 3
M  V30 30 1 27 3
M  V30 31 1 28 4
M  V30 32 1 29 4
M  V30 33 1 30 4
M  V30 34 1 5 31 CFG=3
M  V30 35 1 6 32 CFG=1
M  V30 36 1 33 8
M  V30 37 1 34 8
M  V30 38 1 35 10
M  V30 39 1 36 10
M  V30 40 1 12 37 CFG=3
M  V30 41 1 13 38 CFG=1
M  V30 42 1 39 14
M  V30 43 1 40 14
M  V30 44 1 41 15
M  V30 45 1 42 15
M  V30 46 1 43 16
M  V30 47 1 17 44 CFG=3
M  V30 48 1 18 45 CFG=1
M  V30 49 1 46 19
M  V30 50 1 47 19
M  V30 51 1 48 21
M  V30 52 1 49 22
M  V30 53 1 23 50 CFG=3
M  V30 54 1 11 51 CFG=1
M  V30 END BOND
M  V30 END CTAB
M  END
>  <i_epik_Tot_Q>  (1) 
1

>  <i_epik_Tot_abs_Q>  (1) 
1

>  <i_i_glide_confnum>  (1) 
37

>  <i_i_glide_lignum>  (1) 
105

>  <i_i_glide_posenum>  (1) 
240

>  <i_i_glide_rotatable_bonds>  (1) 
5

>  <i_lp_mmshare_version>  (1) 
72125

>  <i_m_source_file_index>  (1) 
56

>  <i_f3d_flags>  (1) 
0

>  <num_sample>  (1) 
100

>  <b_lp_Chiralities_Consistent>  (1) 
1

>  <r_epik_Charging_Adjusted_Penalty>  (1) 
0.1887110856522376

>  <r_epik_Ionization_Penalty>  (1) 
0.094355642401006162

>  <r_epik_Ionization_Penalty_Charging>  (1) 
0.094355542826118813

>  <r_epik_Ionization_Penalty_Neutral>  (1) 
9.9574887353862298e-08

>  <r_epik_State_Penalty>  (1) 
0.094355542826118799

>  <r_glide_ring_energy>  (1) 
0.48034924446919847

>  <r_i_docking_score>  (1) 
-7.0066281250151521

>  <r_i_glide_ecoul>  (1) 
-5.8099815634895648

>  <r_i_glide_eff_state_penalty>  (1) 
0.094355542826118799

>  <r_i_glide_einternal>  (1) 
4.5478536964427878

>  <r_i_glide_emodel>  (1) 
-57.809704407839043

>  <r_i_glide_emodel_strain>  (1) 
1.4870432952760879

>  <r_i_glide_energy>  (1) 
-44.592541926535333

>  <r_i_glide_erotb>  (1) 
0.49519417565235591

>  <r_i_glide_esite>  (1) 
-0.083748021787332816

>  <r_i_glide_evdw>  (1) 
-38.782560363045768

>  <r_i_glide_gscore>  (1) 
-7.1009836678412706

>  <r_i_glide_gscore_strain>  (1) 
0

>  <r_i_glide_hbond>  (1) 
-0.52000000000000002

>  <r_i_glide_ligand_efficiency>  (1) 
-0.30463600543544139

>  <r_i_glide_ligand_efficiency_ln>  (1) 
-1.6942662132199175

>  <r_i_glide_ligand_efficiency_sa>  (1) 
-0.86634427673173386

>  <r_i_glide_lipo>  (1) 
-1.8157009363418786

>  <r_i_glide_metal>  (1) 
-0

>  <r_i_glide_rewards>  (1) 
-2.3661036326886902

>  <r_lp_Energy>  (1) 
18.143661999999999

>  <r_lp_tautomer_probability>  (1) 
0.99995000000000001

>  <s_epik_cmdline>  (1) 
J2VwaWtfcHl0aG9uJywgJy1waHQnLCAnMS4wJywgJy1waCcsICc3LjQnLCAnLXRuJywgJzgnLCAnLW1hJywgJzUwMCcsICctaW1hZScsICc8aW5maWxlLm1hZT4nLCAnLW9tYWUnLCAnPG91dGZpbGUubWFlPic=

>  <s_epik_input>  (1) 
W0NIMl0xW0NIMl1bQ0gyXU9bQ0BASF0xW0NASF0yW0NASF0oW09IXSlbQ0gyXU4oW0NASF0oW0NASF0yMylbQ0gyXTMpW0NASF0oW0NIM10pXFtDSF09W0NIXVxbQ0BASF00U1tDSDJdW0NIMl1DND1P

>  <s_glide_docking_method>  (1) 
confgen

>  <s_i_glide_gridfile>  (1) 
gpcr_drd2_6luq_protein_autoprepared_prepared

>  <s_lp_Force_Field>  (1) 
S-OPLS

>  <s_lp_Variant>  (1) 
DiffSBDD_55_num_sample_100-6

>  <s_m_source_file>  (1) 
generated__ligand_DiffSBDD_2026-05-06_prepared.sdf

>  <GenAI_Model>  (1) 
DiffSBDD

>  <Protein>  (1) 
generic_title2

$$$$
DiffSBDD_40_num_sample_100
     RDKit          3D

  0  0  0  0  0  0  0  0  0  0999 V3000
M  V30 BEGIN CTAB
M  V30 COUNTS 63 67 0 0 1
M  V30 BEGIN ATOM
M  V30 1 F 12.282836 7.880880 -3.491664 0
M  V30 2 C 8.650709 6.248414 -11.302813 0 CFG=2
M  V30 3 O 5.555831 4.088029 -13.225027 0
M  V30 4 C 7.443409 5.708390 -18.129552 0
M  V30 5 C 8.234697 7.336834 -12.291565 0
M  V30 6 C 6.516167 4.409825 -12.529034 0
M  V30 7 C 8.657054 4.762346 -11.679859 0 CFG=1
M  V30 8 C 10.161945 7.162062 -7.940751 0
M  V30 9 C 7.718757 2.723525 -19.466336 0
M  V30 10 F 13.282985 9.369304 -4.691703 0
M  V30 11 O 8.373065 4.914331 -14.085299 0
M  V30 12 C 5.094090 6.241950 -17.422215 0
M  V30 13 F 11.318329 9.769316 -3.905385 0
M  V30 14 O 8.002524 0.856547 -17.889981 0
M  V30 15 C 11.766279 8.722420 -6.944019 0
M  V30 16 N 9.434839 6.618918 -9.055816 0
M  V30 17 N 8.249737 4.511481 -17.773725 0 CFG=2 CHG=1
M  V30 18 C 12.100740 8.824581 -4.416077 0
M  V30 19 C 10.486029 7.208680 -5.523511 0
M  V30 20 C 7.608444 5.304075 -10.691784 0 CFG=2
M  V30 21 C 9.709067 6.804603 -10.371190 0
M  V30 22 C 8.234840 2.632772 -13.091700 0
M  V30 23 C 7.960402 4.143972 -12.947790 0 CFG=2
M  V30 24 O 10.718110 7.369277 -10.790756 0
M  V30 25 C 7.557787 3.229710 -18.046303 0 CFG=2
M  V30 26 C 6.371578 5.998250 -17.085718 0
M  V30 27 C 6.842234 5.996951 -15.637962 0
M  V30 28 C 8.506921 2.093692 -18.340404 0 CFG=2
M  V30 29 C 9.845969 6.682418 -6.656987 0
M  V30 30 C 7.699829 4.753126 -15.332031 0 CFG=1
M  V30 31 C 11.137529 8.187004 -8.088736 0
M  V30 32 C 8.802841 4.595330 -16.397526 0
M  V30 33 N 6.426870 5.002647 -11.372121 0
M  V30 34 C 11.434839 8.236451 -5.658533 0
M  V30 35 H 8.107525 6.569230 -18.201910 0
M  V30 36 H 6.999464 5.581728 -19.118356 0
M  V30 37 H 7.331345 7.074478 -12.838170 0
M  V30 38 H 8.036743 8.273759 -11.768369 0
M  V30 39 H 9.030825 7.505839 -13.011467 0
M  V30 40 H 9.464909 4.164376 -11.260412 0
M  V30 41 H 8.267186 3.341060 -20.175456 0
M  V30 42 H 6.895925 2.153629 -19.894851 0
M  V30 43 H 4.348319 6.446419 -16.667529 0
M  V30 44 H 4.778895 6.239960 -18.455578 0
M  V30 45 H 7.140588 0.714874 -18.252486 0
M  V30 46 H 12.495861 9.509188 -7.050676 0
M  V30 47 H 8.607651 6.085841 -8.829789 0
M  V30 48 H 10.235107 6.831000 -4.545223 0
M  V30 49 H 7.688010 4.931014 -9.672418 0
M  V30 50 H 7.646820 2.040496 -12.392502 0
M  V30 51 H 8.004020 2.257803 -14.087695 0
M  V30 52 H 9.280002 2.405108 -12.885572 0
M  V30 53 H 6.635904 3.046253 -17.499781 0
M  V30 54 H 7.429882 6.897941 -15.467045 0
M  V30 55 H 5.988479 6.056334 -14.963403 0
M  V30 56 H 9.584376 2.227109 -18.257293 0
M  V30 57 H 9.101486 5.908105 -6.540097 0
M  V30 58 H 7.069287 3.864149 -15.337193 0
M  V30 59 H 11.387546 8.583459 -9.054252 0
M  V30 60 H 9.410472 3.716184 -16.189069 0
M  V30 61 H 9.481949 5.448012 -16.349080 0
M  V30 62 H 5.533854 5.244371 -10.967526 0
M  V30 63 H 9.047093 4.518834 -18.394299 0
M  V30 END ATOM
M  V30 BEGIN BOND
M  V30 1 1 2 5 CFG=3
M  V30 2 2 6 3
M  V30 3 1 7 2
M  V30 4 1 16 8
M  V30 5 1 17 4
M  V30 6 1 18 1
M  V30 7 1 18 10
M  V30 8 1 18 13
M  V30 9 1 20 2
M  V30 10 1 20 7
M  V30 11 1 21 2
M  V30 12 1 21 16
M  V30 13 1 23 6
M  V30 14 1 23 7
M  V30 15 1 23 11 CFG=3
M  V30 16 1 23 22
M  V30 17 2 24 21
M  V30 18 1 25 9
M  V30 19 1 25 17
M  V30 20 1 26 4
M  V30 21 2 26 12
M  V30 22 1 27 26
M  V30 23 1 28 9
M  V30 24 1 28 14
M  V30 25 1 28 25
M  V30 26 1 29 8
M  V30 27 2 29 19
M  V30 28 1 30 11
M  V30 29 1 30 27
M  V30 30 2 31 8
M  V30 31 1 31 15
M  V30 32 1 32 17
M  V30 33 1 32 30
M  V30 34 1 33 6
M  V30 35 1 33 20
M  V30 36 2 34 15
M  V30 37 1 34 18
M  V30 38 1 34 19
M  V30 39 1 35 4
M  V30 40 1 36 4
M  V30 41 1 37 5
M  V30 42 1 38 5
M  V30 43 1 39 5
M  V30 44 1 7 40 CFG=1
M  V30 45 1 41 9
M  V30 46 1 42 9
M  V30 47 1 43 12
M  V30 48 1 44 12
M  V30 49 1 45 14
M  V30 50 1 46 15
M  V30 51 1 47 16
M  V30 52 1 48 19
M  V30 53 1 20 49 CFG=1
M  V30 54 1 50 22
M  V30 55 1 51 22
M  V30 56 1 52 22
M  V30 57 1 25 53 CFG=1
M  V30 58 1 54 27
M  V30 59 1 55 27
M  V30 60 1 28 56 CFG=3
M  V30 61 1 57 29
M  V30 62 1 30 58 CFG=1
M  V30 63 1 59 31
M  V30 64 1 60 32
M  V30 65 1 61 32
M  V30 66 1 62 33
M  V30 67 1 17 63 CFG=3
M  V30 END BOND
M  V30 END CTAB
M  END
>  <i_epik_Tot_Q>  (1) 
1

>  <i_epik_Tot_abs_Q>  (1) 
1

>  <i_i_glide_confnum>  (1) 
60

>  <i_i_glide_lignum>  (1) 
71

>  <i_i_glide_posenum>  (1) 
398

>  <i_i_glide_rotatable_bonds>  (1) 
8

>  <i_lp_mmshare_version>  (1) 
72125

>  <i_m_source_file_index>  (1) 
41

>  <i_f3d_flags>  (1) 
0

>  <num_sample>  (1) 
100

>  <b_lp_Chiralities_Consistent>  (1) 
1

>  <r_epik_Charging_Adjusted_Penalty>  (1) 
0.4978346940249993

>  <r_epik_Ionization_Penalty>  (1) 
0.24891983878036394

>  <r_epik_Ionization_Penalty_Charging>  (1) 
0.24891734701249965

>  <r_epik_Ionization_Penalty_Neutral>  (1) 
2.4917678643056738e-06

>  <r_epik_State_Penalty>  (1) 
0.24891734701249965

>  <r_glide_ring_energy>  (1) 
0

>  <r_i_docking_score>  (1) 
-7.0042981660445074

>  <r_i_glide_ecoul>  (1) 
-4.8087334644013628

>  <r_i_glide_eff_state_penalty>  (1) 
0.24891734701249965

>  <r_i_glide_einternal>  (1) 
1.8964231883256844

>  <r_i_glide_emodel>  (1) 
-69.607691111069329

>  <r_i_glide_emodel_strain>  (1) 
1.1511373490784393

>  <r_i_glide_energy>  (1) 
-47.93234179212142

>  <r_i_glide_erotb>  (1) 
0.52699016033767154

>  <r_i_glide_esite>  (1) 
-0.23075424136727804

>  <r_i_glide_evdw>  (1) 
-43.123608327720056

>  <r_i_glide_gscore>  (1) 
-7.2532155130570066

>  <r_i_glide_gscore_strain>  (1) 
0

>  <r_i_glide_hbond>  (1) 
0

>  <r_i_glide_ligand_efficiency>  (1) 
-0.20600876958954434

>  <r_i_glide_ligand_efficiency_ln>  (1) 
-1.5474459287881133

>  <r_i_glide_ligand_efficiency_sa>  (1) 
-0.6673884411289418

>  <r_i_glide_lipo>  (1) 
-2.5824629366604115

>  <r_i_glide_metal>  (1) 
-0

>  <r_i_glide_rewards>  (1) 
-2.0894980593207797

>  <r_lp_Energy>  (1) 
40.196967999999998

>  <s_epik_cmdline>  (1) 
J2VwaWtfcHl0aG9uJywgJy1waHQnLCAnMS4wJywgJy1waCcsICc3LjQnLCAnLXRuJywgJzgnLCAnLW1hJywgJzUwMCcsICctaW1hZScsICc8aW5maWxlLm1hZT4nLCAnLW9tYWUnLCAnPG91dGZpbGUubWFlPic=

>  <s_epik_input>  (1) 
RkMoRikoRiljKFtjSF1bY0hdMSlbY0hdW2NIXWMxW05IXUMoPU8pW0NAXTIoW0NIM10pW0NASF0oW0NASF0yMylbTkhdQyg9TylbQ0BAXTMoW0NIM10pT1tDQEhdKFtDSDJdNClbQ0gyXUMoPVtDSDJdKVtDSDJdTjRbQ0BIXTVbQ0gyXVtDQEBIXTVbT0hd

>  <s_glide_docking_method>  (1) 
confgen

>  <s_i_glide_gridfile>  (1) 
gpcr_drd2_6luq_protein_autoprepared_prepared

>  <s_lp_Force_Field>  (1) 
S-OPLS

>  <s_lp_Variant>  (1) 
DiffSBDD_40_num_sample_100-2

>  <s_m_source_file>  (1) 
generated__ligand_DiffSBDD_2026-05-06_prepared.sdf

>  <GenAI_Model>  (1) 
DiffSBDD

>  <Protein>  (1) 
generic_title2

$$$$
DiffSBDD_55_num_sample_100
     RDKit          3D

  0  0  0  0  0  0  0  0  0  0999 V3000
M  V30 BEGIN CTAB
M  V30 COUNTS 51 54 0 0 1
M  V30 BEGIN ATOM
M  V30 1 O 6.613750 4.172536 -11.299687 0
M  V30 2 C 12.245305 9.226018 -3.844522 0
M  V30 3 C 9.473575 7.557416 -11.144053 0
M  V30 4 C 11.587354 8.502455 -8.997877 0
M  V30 5 C 9.262369 4.874517 -10.207998 0 CFG=2
M  V30 6 C 8.825367 5.176525 -11.647637 0 CFG=1
M  V30 7 S 11.434868 6.750860 -4.704178 0
M  V30 8 C 12.234910 7.753720 -3.425200 0
M  V30 9 C 11.792665 9.334666 -5.294545 0
M  V30 10 C 5.915755 4.966346 -13.435105 0
M  V30 11 N 9.434895 7.360242 -9.685142 0 CFG=2 CHG=1
M  V30 12 C 7.769775 4.146552 -12.126508 0 CFG=2
M  V30 13 C 8.409862 6.652472 -11.770992 0 CFG=2
M  V30 14 C 7.241265 4.236294 -13.563219 0
M  V30 15 C 5.524490 4.794028 -11.970641 0
M  V30 16 C 9.816694 8.290903 -6.310091 0
M  V30 17 C 10.052183 8.441517 -8.879511 0 CFG=1
M  V30 18 C 11.271105 8.057346 -5.950241 0 CFG=2
M  V30 19 C 8.453193 5.193791 -8.969239 0
M  V30 20 O 11.835925 10.400691 -5.903436 0
M  V30 21 O 8.234557 7.067784 -13.093405 0
M  V30 22 C 9.302501 8.462459 -7.544086 0
M  V30 23 C 9.722330 5.970095 -9.250741 0 CFG=1
M  V30 24 H 11.563358 9.804132 -3.221848 0
M  V30 25 H 13.241221 9.654629 -3.732590 0
M  V30 26 H 10.470447 7.350876 -11.539411 0
M  V30 27 H 9.236840 8.595441 -11.375299 0
M  V30 28 H 12.004580 9.295451 -8.378192 0
M  V30 29 H 12.075325 7.558843 -8.762518 0
M  V30 30 H 11.874536 8.740536 -10.022631 0
M  V30 31 H 9.811717 3.937304 -10.140508 0
M  V30 32 H 9.715901 5.035054 -12.263248 0
M  V30 33 H 11.721440 7.612942 -2.474653 0
M  V30 34 H 13.256035 7.395401 -3.290667 0
M  V30 35 H 5.159826 4.559258 -14.105427 0
M  V30 36 H 6.017477 6.023548 -13.670438 0
M  V30 37 H 8.233790 3.165099 -12.020431 0
M  V30 38 H 7.452068 6.801298 -11.277578 0
M  V30 39 H 7.935807 4.707044 -14.258392 0
M  V30 40 H 7.048779 3.230352 -13.940437 0
M  V30 41 H 4.637815 4.169940 -11.888359 0
M  V30 42 H 5.296567 5.752849 -11.503918 0
M  V30 43 H 9.140624 8.321389 -5.491681 0
M  V30 44 H 9.704579 9.368645 -9.332135 0
M  V30 45 H 11.908428 7.776539 -6.772341 0
M  V30 46 H 8.485927 4.480331 -8.148502 0
M  V30 47 H 7.490908 5.684599 -9.105420 0
M  V30 48 H 8.977011 6.782958 -13.603391 0
M  V30 49 H 8.242793 8.631442 -7.617993 0
M  V30 50 H 10.602045 5.817873 -8.628505 0
M  V30 51 H 8.431623 7.480088 -9.491619 0
M  V30 END ATOM
M  V30 BEGIN BOND
M  V30 1 1 6 5
M  V30 2 1 8 2
M  V30 3 1 8 7
M  V30 4 1 9 2
M  V30 5 1 11 3
M  V30 6 1 12 1
M  V30 7 1 12 6
M  V30 8 1 13 3
M  V30 9 1 13 6
M  V30 10 1 14 10
M  V30 11 1 14 12
M  V30 12 1 15 1
M  V30 13 1 15 10
M  V30 14 1 17 4
M  V30 15 1 17 11
M  V30 16 1 18 7
M  V30 17 1 18 9
M  V30 18 1 18 16
M  V30 19 1 19 5
M  V30 20 2 20 9
M  V30 21 1 21 13
M  V30 22 2 22 16
M  V30 23 1 22 17
M  V30 24 1 23 5
M  V30 25 1 23 11
M  V30 26 1 23 19
M  V30 27 1 24 2
M  V30 28 1 25 2
M  V30 29 1 26 3
M  V30 30 1 27 3
M  V30 31 1 28 4
M  V30 32 1 29 4
M  V30 33 1 30 4
M  V30 34 1 5 31 CFG=3
M  V30 35 1 6 32 CFG=3
M  V30 36 1 33 8
M  V30 37 1 34 8
M  V30 38 1 35 10
M  V30 39 1 36 10
M  V30 40 1 12 37 CFG=3
M  V30 41 1 13 38 CFG=1
M  V30 42 1 39 14
M  V30 43 1 40 14
M  V30 44 1 41 15
M  V30 45 1 42 15
M  V30 46 1 43 16
M  V30 47 1 17 44 CFG=3
M  V30 48 1 18 45 CFG=3
M  V30 49 1 46 19
M  V30 50 1 47 19
M  V30 51 1 48 21
M  V30 52 1 49 22
M  V30 53 1 23 50 CFG=1
M  V30 54 1 11 51 CFG=1
M  V30 END BOND
M  V30 END CTAB
M  END
>  <i_epik_Tot_Q>  (1) 
1

>  <i_epik_Tot_abs_Q>  (1) 
1

>  <i_i_glide_confnum>  (1) 
181

>  <i_i_glide_lignum>  (1) 
106

>  <i_i_glide_posenum>  (1) 
170

>  <i_i_glide_rotatable_bonds>  (1) 
5

>  <i_lp_mmshare_version>  (1) 
72125

>  <i_m_source_file_index>  (1) 
56

>  <i_f3d_flags>  (1) 
0

>  <num_sample>  (1) 
100

>  <b_lp_Chiralities_Consistent>  (1) 
1

>  <r_epik_Charging_Adjusted_Penalty>  (1) 
0.1887110856522376

>  <r_epik_Ionization_Penalty>  (1) 
0.094355642401006162

>  <r_epik_Ionization_Penalty_Charging>  (1) 
0.094355542826118813

>  <r_epik_Ionization_Penalty_Neutral>  (1) 
9.9574887353862298e-08

>  <r_epik_State_Penalty>  (1) 
0.094355542826118799

>  <r_glide_ring_energy>  (1) 
1.5489933511600484

>  <r_i_docking_score>  (1) 
-7.0015697854688002

>  <r_i_glide_ecoul>  (1) 
-5.7027000014173259

>  <r_i_glide_eff_state_penalty>  (1) 
0.094355542826118799

>  <r_i_glide_einternal>  (1) 
4.4109642835502783

>  <r_i_glide_emodel>  (1) 
-54.563342281025896

>  <r_i_glide_emodel_strain>  (1) 
2.4857618448261576

>  <r_i_glide_energy>  (1) 
-40.463924735310975

>  <r_i_glide_erotb>  (1) 
0.49519417565235591

>  <r_i_glide_esite>  (1) 
-0.10000000000000001

>  <r_i_glide_evdw>  (1) 
-34.761224733893648

>  <r_i_glide_gscore>  (1) 
-7.0959253282949186

>  <r_i_glide_gscore_strain>  (1) 
0

>  <r_i_glide_hbond>  (1) 
-0.20000000000000001

>  <r_i_glide_ligand_efficiency>  (1) 
-0.30441607762907824

>  <r_i_glide_ligand_efficiency_ln>  (1) 
-1.6930430608511224

>  <r_i_glide_ligand_efficiency_sa>  (1) 
-0.86571883130526661

>  <r_i_glide_lipo>  (1) 
-2.2464675397672638

>  <r_i_glide_metal>  (1) 
-0

>  <r_i_glide_rewards>  (1) 
-2.4511857272727284

>  <r_lp_Energy>  (1) 
23.659068999999999

>  <r_lp_tautomer_probability>  (1) 
0.99995000000000001

>  <s_epik_cmdline>  (1) 
J2VwaWtfcHl0aG9uJywgJy1waHQnLCAnMS4wJywgJy1waCcsICc3LjQnLCAnLXRuJywgJzgnLCAnLW1hJywgJzUwMCcsICctaW1hZScsICc8aW5maWxlLm1hZT4nLCAnLW9tYWUnLCAnPG91dGZpbGUubWFlPic=

>  <s_epik_input>  (1) 
W0NIMl0xW0NIMl1bQ0gyXU9bQ0BASF0xW0NASF0yW0NASF0oW09IXSlbQ0gyXU4oW0NASF0oW0NASF0yMylbQ0gyXTMpW0NASF0oW0NIM10pL1tDSF09W0NIXVxbQ0BASF00U1tDSDJdW0NIMl1DND1P

>  <s_glide_docking_method>  (1) 
confgen

>  <s_i_glide_gridfile>  (1) 
gpcr_drd2_6luq_protein_autoprepared_prepared

>  <s_lp_Force_Field>  (1) 
S-OPLS

>  <s_lp_Variant>  (1) 
DiffSBDD_55_num_sample_100-7

>  <s_m_source_file>  (1) 
generated__ligand_DiffSBDD_2026-05-06_prepared.sdf

>  <GenAI_Model>  (1) 
DiffSBDD

>  <Protein>  (1) 
generic_title2

$$$$
DiffSBDD_40_num_sample_100
     RDKit          3D

  0  0  0  0  0  0  0  0  0  0999 V3000
M  V30 BEGIN CTAB
M  V30 COUNTS 63 67 0 0 1
M  V30 BEGIN ATOM
M  V30 1 F 13.189814 9.769302 -5.447343 0
M  V30 2 C 8.534846 5.920520 -11.616295 0 CFG=2
M  V30 3 O 5.376129 3.769317 -13.327685 0
M  V30 4 C 7.842627 4.119480 -18.547799 0
M  V30 5 C 8.016682 6.968431 -12.601706 0
M  V30 6 C 6.369744 4.062884 -12.674003 0
M  V30 7 C 8.552678 4.415323 -11.944000 0 CFG=1
M  V30 8 C 10.107008 7.153593 -8.400160 0
M  V30 9 C 7.142847 0.907237 -19.016111 0
M  V30 10 F 11.194640 10.170765 -4.699706 0
M  V30 11 O 8.154987 4.410744 -14.344783 0
M  V30 12 C 5.834842 5.614994 -18.362443 0
M  V30 13 F 12.234837 8.389341 -4.070399 0
M  V30 14 O 6.499057 -0.310556 -16.981957 0
M  V30 15 C 11.834868 8.680768 -7.580576 0
M  V30 16 N 9.367232 6.504162 -9.444124 0
M  V30 17 N 8.113810 2.876939 -17.777672 0 CFG=2 CHG=1
M  V30 18 C 12.029633 9.214034 -5.098020 0
M  V30 19 C 10.312870 7.597414 -6.014489 0
M  V30 20 C 7.558758 4.976748 -10.912358 0 CFG=2
M  V30 21 C 9.622609 6.541232 -10.773622 0
M  V30 22 C 7.985554 2.200817 -13.193551 0
M  V30 23 C 7.786081 3.731218 -13.138033 0 CFG=2
M  V30 24 O 10.633456 7.032717 -11.270732 0
M  V30 25 C 7.027351 1.868556 -17.850323 0 CFG=2
M  V30 26 C 6.916785 5.061001 -17.791060 0
M  V30 27 C 7.298105 5.335362 -16.347676 0
M  V30 28 C 7.498782 0.451936 -17.619154 0 CFG=2
M  V30 29 C 9.678197 6.944388 -7.077626 0
M  V30 30 C 7.570355 4.029166 -15.590091 0 CFG=1
M  V30 31 C 11.203880 8.022804 -8.655966 0
M  V30 32 C 8.566228 3.158247 -16.390308 0
M  V30 33 N 6.343748 4.678593 -11.525107 0
M  V30 34 C 11.381172 8.475876 -6.258504 0
M  V30 35 H 8.787053 4.639284 -18.713660 0
M  V30 36 H 7.439821 3.877090 -19.532149 0
M  V30 37 H 6.988167 6.784066 -12.906000 0
M  V30 38 H 8.045350 7.971540 -12.171106 0
M  V30 39 H 8.634842 6.958411 -13.491666 0
M  V30 40 H 9.404628 3.853070 -11.564719 0
M  V30 41 H 7.958883 1.049029 -19.722629 0
M  V30 42 H 6.217402 0.530304 -19.448634 0
M  V30 43 H 5.191451 6.281806 -17.806624 0
M  V30 44 H 5.579228 5.408597 -19.391636 0
M  V30 45 H 6.750321 -1.224039 -16.985489 0
M  V30 46 H 12.654803 9.353176 -7.771444 0
M  V30 47 H 8.519232 6.037005 -9.156342 0
M  V30 48 H 9.968266 7.435224 -5.009284 0
M  V30 49 H 7.699981 4.640860 -9.886505 0
M  V30 50 H 7.626320 1.708168 -12.291692 0
M  V30 51 H 7.446851 1.744253 -14.023619 0
M  V30 52 H 9.034836 1.937128 -13.284251 0
M  V30 53 H 6.047363 2.169290 -17.491761 0
M  V30 54 H 8.204369 5.938742 -16.348441 0
M  V30 55 H 6.526862 5.916748 -15.840176 0
M  V30 56 H 8.527298 0.239409 -17.331885 0
M  V30 57 H 8.842174 6.287943 -6.879989 0
M  V30 58 H 6.634865 3.488080 -15.461805 0
M  V30 59 H 11.549064 8.209955 -9.652854 0
M  V30 60 H 8.747861 2.209596 -15.891492 0
M  V30 61 H 9.529431 3.667961 -16.440547 0
M  V30 62 H 5.475513 4.959186 -11.092795 0
M  V30 63 H 8.900068 2.439975 -18.237161 0
M  V30 END ATOM
M  V30 BEGIN BOND
M  V30 1 1 2 5 CFG=3
M  V30 2 2 6 3
M  V30 3 1 7 2
M  V30 4 1 16 8
M  V30 5 1 17 4
M  V30 6 1 18 1
M  V30 7 1 18 10
M  V30 8 1 18 13
M  V30 9 1 20 2
M  V30 10 1 20 7
M  V30 11 1 21 2
M  V30 12 1 21 16
M  V30 13 1 23 6
M  V30 14 1 23 7
M  V30 15 1 23 11 CFG=3
M  V30 16 1 23 22
M  V30 17 2 24 21
M  V30 18 1 25 9
M  V30 19 1 25 17
M  V30 20 1 26 4
M  V30 21 2 26 12
M  V30 22 1 27 26
M  V30 23 1 28 9
M  V30 24 1 28 14
M  V30 25 1 28 25
M  V30 26 1 29 8
M  V30 27 2 29 19
M  V30 28 1 30 11
M  V30 29 1 30 27
M  V30 30 2 31 8
M  V30 31 1 31 15
M  V30 32 1 32 17
M  V30 33 1 32 30
M  V30 34 1 33 6
M  V30 35 1 33 20
M  V30 36 2 34 15
M  V30 37 1 34 18
M  V30 38 1 34 19
M  V30 39 1 35 4
M  V30 40 1 36 4
M  V30 41 1 37 5
M  V30 42 1 38 5
M  V30 43 1 39 5
M  V30 44 1 7 40 CFG=1
M  V30 45 1 41 9
M  V30 46 1 42 9
M  V30 47 1 43 12
M  V30 48 1 44 12
M  V30 49 1 45 14
M  V30 50 1 46 15
M  V30 51 1 47 16
M  V30 52 1 48 19
M  V30 53 1 20 49 CFG=1
M  V30 54 1 50 22
M  V30 55 1 51 22
M  V30 56 1 52 22
M  V30 57 1 25 53 CFG=1
M  V30 58 1 54 27
M  V30 59 1 55 27
M  V30 60 1 28 56 CFG=3
M  V30 61 1 57 29
M  V30 62 1 30 58 CFG=1
M  V30 63 1 59 31
M  V30 64 1 60 32
M  V30 65 1 61 32
M  V30 66 1 62 33
M  V30 67 1 17 63 CFG=3
M  V30 END BOND
M  V30 END CTAB
M  END
>  <i_epik_Tot_Q>  (1) 
1

>  <i_epik_Tot_abs_Q>  (1) 
1

>  <i_i_glide_confnum>  (1) 
54

>  <i_i_glide_lignum>  (1) 
71

>  <i_i_glide_posenum>  (1) 
227

>  <i_i_glide_rotatable_bonds>  (1) 
8

>  <i_lp_mmshare_version>  (1) 
72125

>  <i_m_source_file_index>  (1) 
41

>  <i_f3d_flags>  (1) 
0

>  <num_sample>  (1) 
100

>  <b_lp_Chiralities_Consistent>  (1) 
1

>  <r_epik_Charging_Adjusted_Penalty>  (1) 
0.4978346940249993

>  <r_epik_Ionization_Penalty>  (1) 
0.24891983878036394

>  <r_epik_Ionization_Penalty_Charging>  (1) 
0.24891734701249965

>  <r_epik_Ionization_Penalty_Neutral>  (1) 
2.4917678643056738e-06

>  <r_epik_State_Penalty>  (1) 
0.24891734701249965

>  <r_glide_ring_energy>  (1) 
0

>  <r_i_docking_score>  (1) 
-6.9950892299976228

>  <r_i_glide_ecoul>  (1) 
-5.5287299937189811

>  <r_i_glide_eff_state_penalty>  (1) 
0.24891734701249965

>  <r_i_glide_einternal>  (1) 
6.8969199248142417

>  <r_i_glide_emodel>  (1) 
-67.467994202880291

>  <r_i_glide_emodel_strain>  (1) 
0.45474910755946496

>  <r_i_glide_energy>  (1) 
-47.626690198928507

>  <r_i_glide_erotb>  (1) 
0.52699016033767154

>  <r_i_glide_esite>  (1) 
-0.17970768022396652

>  <r_i_glide_evdw>  (1) 
-42.097960205209525

>  <r_i_glide_gscore>  (1) 
-7.2440065770101221

>  <r_i_glide_gscore_strain>  (1) 
0

>  <r_i_glide_hbond>  (1) 
0

>  <r_i_glide_ligand_efficiency>  (1) 
-0.20573791852934184

>  <r_i_glide_ligand_efficiency_ln>  (1) 
-1.5454114165134496

>  <r_i_glide_ligand_efficiency_sa>  (1) 
-0.66651098883792137

>  <r_i_glide_lipo>  (1) 
-2.3349145168812839

>  <r_i_glide_metal>  (1) 
-0

>  <r_i_glide_rewards>  (1) 
-2.3221670309242199

>  <r_lp_Energy>  (1) 
40.196967999999998

>  <s_epik_cmdline>  (1) 
J2VwaWtfcHl0aG9uJywgJy1waHQnLCAnMS4wJywgJy1waCcsICc3LjQnLCAnLXRuJywgJzgnLCAnLW1hJywgJzUwMCcsICctaW1hZScsICc8aW5maWxlLm1hZT4nLCAnLW9tYWUnLCAnPG91dGZpbGUubWFlPic=

>  <s_epik_input>  (1) 
RkMoRikoRiljKFtjSF1bY0hdMSlbY0hdW2NIXWMxW05IXUMoPU8pW0NAXTIoW0NIM10pW0NASF0oW0NASF0yMylbTkhdQyg9TylbQ0BAXTMoW0NIM10pT1tDQEhdKFtDSDJdNClbQ0gyXUMoPVtDSDJdKVtDSDJdTjRbQ0BIXTVbQ0gyXVtDQEBIXTVbT0hd

>  <s_glide_docking_method>  (1) 
confgen

>  <s_i_glide_gridfile>  (1) 
gpcr_drd2_6luq_protein_autoprepared_prepared

>  <s_lp_Force_Field>  (1) 
S-OPLS

>  <s_lp_Variant>  (1) 
DiffSBDD_40_num_sample_100-2

>  <s_m_source_file>  (1) 
generated__ligand_DiffSBDD_2026-05-06_prepared.sdf

>  <GenAI_Model>  (1) 
DiffSBDD

>  <Protein>  (1) 
generic_title2

$$$$
DiffSBDD_55_num_sample_100
     RDKit          3D

  0  0  0  0  0  0  0  0  0  0999 V3000
M  V30 BEGIN CTAB
M  V30 COUNTS 51 54 0 0 1
M  V30 BEGIN ATOM
M  V30 1 O 6.715618 4.494868 -14.117710 0
M  V30 2 C 12.136104 7.755348 -3.695564 0
M  V30 3 C 9.024663 7.345900 -11.745085 0
M  V30 4 C 11.677544 7.778664 -10.081213 0
M  V30 5 C 8.804495 4.610501 -10.927293 0 CFG=2
M  V30 6 C 8.301001 5.008118 -12.318313 0 CFG=1
M  V30 7 S 11.386837 9.978960 -5.095044 0
M  V30 8 C 12.516801 9.223420 -3.891650 0
M  V30 9 C 11.434818 7.331907 -4.978073 0
M  V30 10 C 7.445708 2.385211 -14.582663 0
M  V30 11 N 9.240071 7.062484 -10.303087 0 CFG=2 CHG=1
M  V30 12 C 7.179835 4.061040 -12.837574 0 CFG=2
M  V30 13 C 7.881771 6.494568 -12.310545 0 CFG=2
M  V30 14 C 7.627137 2.605478 -13.091667 0
M  V30 15 C 7.435075 3.802403 -15.125050 0
M  V30 16 C 10.972141 8.292824 -7.254733 0
M  V30 17 C 10.208026 7.996265 -9.661987 0 CFG=1
M  V30 18 C 10.738228 8.430159 -5.764302 0 CFG=2
M  V30 19 C 8.070645 4.969302 -9.652247 0
M  V30 20 O 11.434839 6.169302 -5.358175 0
M  V30 21 O 7.607224 6.950778 -13.616219 0
M  V30 22 C 9.985814 8.123018 -8.157386 0
M  V30 23 C 9.403205 5.625592 -9.959054 0 CFG=1
M  V30 24 H 13.009433 7.135975 -3.491677 0
M  V30 25 H 11.441563 7.641256 -2.863401 0
M  V30 26 H 9.937814 7.170654 -12.313637 0
M  V30 27 H 8.771598 8.400532 -11.865957 0
M  V30 28 H 12.269378 8.673888 -9.885049 0
M  V30 29 H 12.137473 6.969301 -9.524211 0
M  V30 30 H 11.788204 7.559050 -11.141170 0
M  V30 31 H 9.298162 3.641240 -10.919433 0
M  V30 32 H 9.156396 4.912158 -12.989558 0
M  V30 33 H 13.526925 9.301888 -4.291682 0
M  V30 34 H 12.493296 9.769301 -2.948340 0
M  V30 35 H 6.486555 1.903945 -14.775047 0
M  V30 36 H 8.229824 1.767650 -15.021593 0
M  V30 37 H 6.335689 4.085476 -12.147031 0
M  V30 38 H 6.973105 6.637883 -11.724020 0
M  V30 39 H 8.668785 2.449007 -12.810001 0
M  V30 40 H 7.022963 1.892855 -12.529657 0
M  V30 41 H 6.958840 3.881754 -16.101418 0
M  V30 42 H 8.447351 4.201669 -15.206451 0
M  V30 43 H 11.999253 8.341495 -7.583006 0
M  V30 44 H 9.915618 8.969299 -10.030931 0
M  V30 45 H 9.669700 8.371716 -5.561441 0
M  V30 46 H 8.053732 4.246064 -8.840855 0
M  V30 47 H 7.157805 5.553188 -9.740247 0
M  V30 48 H 7.062495 6.292522 -14.034767 0
M  V30 49 H 8.959756 8.075353 -7.818039 0
M  V30 50 H 10.234836 5.378134 -9.303521 0
M  V30 51 H 8.339868 7.333757 -9.891649 0
M  V30 END ATOM
M  V30 BEGIN BOND
M  V30 1 1 6 5
M  V30 2 1 8 2
M  V30 3 1 8 7
M  V30 4 1 9 2
M  V30 5 1 11 3
M  V30 6 1 12 1
M  V30 7 1 12 6
M  V30 8 1 13 3
M  V30 9 1 13 6
M  V30 10 1 14 10
M  V30 11 1 14 12
M  V30 12 1 15 1
M  V30 13 1 15 10
M  V30 14 1 17 4
M  V30 15 1 17 11
M  V30 16 1 18 7
M  V30 17 1 18 9
M  V30 18 1 18 16
M  V30 19 1 19 5
M  V30 20 2 20 9
M  V30 21 1 21 13
M  V30 22 2 22 16
M  V30 23 1 22 17
M  V30 24 1 23 5
M  V30 25 1 23 11
M  V30 26 1 23 19
M  V30 27 1 24 2
M  V30 28 1 25 2
M  V30 29 1 26 3
M  V30 30 1 27 3
M  V30 31 1 28 4
M  V30 32 1 29 4
M  V30 33 1 30 4
M  V30 34 1 5 31 CFG=3
M  V30 35 1 6 32 CFG=3
M  V30 36 1 33 8
M  V30 37 1 34 8
M  V30 38 1 35 10
M  V30 39 1 36 10
M  V30 40 1 12 37 CFG=1
M  V30 41 1 13 38 CFG=1
M  V30 42 1 39 14
M  V30 43 1 40 14
M  V30 44 1 41 15
M  V30 45 1 42 15
M  V30 46 1 43 16
M  V30 47 1 17 44 CFG=3
M  V30 48 1 18 45 CFG=3
M  V30 49 1 46 19
M  V30 50 1 47 19
M  V30 51 1 48 21
M  V30 52 1 49 22
M  V30 53 1 23 50 CFG=1
M  V30 54 1 11 51 CFG=1
M  V30 END BOND
M  V30 END CTAB
M  END
>  <i_epik_Tot_Q>  (1) 
1

>  <i_epik_Tot_abs_Q>  (1) 
1

>  <i_i_glide_confnum>  (1) 
249

>  <i_i_glide_lignum>  (1) 
104

>  <i_i_glide_posenum>  (1) 
19

>  <i_i_glide_rotatable_bonds>  (1) 
5

>  <i_lp_mmshare_version>  (1) 
72125

>  <i_m_source_file_index>  (1) 
56

>  <i_f3d_flags>  (1) 
0

>  <num_sample>  (1) 
100

>  <b_lp_Chiralities_Consistent>  (1) 
1

>  <r_epik_Charging_Adjusted_Penalty>  (1) 
0.1887110856522376

>  <r_epik_Ionization_Penalty>  (1) 
0.094355642401006162

>  <r_epik_Ionization_Penalty_Charging>  (1) 
0.094355542826118813

>  <r_epik_Ionization_Penalty_Neutral>  (1) 
9.9574887353862298e-08

>  <r_epik_State_Penalty>  (1) 
0.094355542826118799

>  <r_glide_ring_energy>  (1) 
1.602213049698493

>  <r_i_docking_score>  (1) 
-6.9931572858514697

>  <r_i_glide_ecoul>  (1) 
-6.1837792813691541

>  <r_i_glide_eff_state_penalty>  (1) 
0.094355542826118799

>  <r_i_glide_einternal>  (1) 
4.1095066076662761

>  <r_i_glide_emodel>  (1) 
-56.226017928111695

>  <r_i_glide_emodel_strain>  (1) 
2.3058319063805399

>  <r_i_glide_energy>  (1) 
-41.111456402132326

>  <r_i_glide_erotb>  (1) 
0.49519417565235591

>  <r_i_glide_esite>  (1) 
-0.10000000000000001

>  <r_i_glide_evdw>  (1) 
-34.927677120763171

>  <r_i_glide_gscore>  (1) 
-7.0875128286775881

>  <r_i_glide_gscore_strain>  (1) 
0

>  <r_i_glide_hbond>  (1) 
-0.20000000000000001

>  <r_i_glide_ligand_efficiency>  (1) 
-0.30405031677615085

>  <r_i_glide_ligand_efficiency_ln>  (1) 
-1.6910088421633227

>  <r_i_glide_ligand_efficiency_sa>  (1) 
-0.8646786560931039

>  <r_i_glide_lipo>  (1) 
-2.3012432393917575

>  <r_i_glide_metal>  (1) 
-0

>  <r_i_glide_rewards>  (1) 
-2.3075130166946556

>  <r_lp_Energy>  (1) 
21.402259999999998

>  <r_lp_tautomer_probability>  (1) 
0.99995000000000001

>  <s_epik_cmdline>  (1) 
J2VwaWtfcHl0aG9uJywgJy1waHQnLCAnMS4wJywgJy1waCcsICc3LjQnLCAnLXRuJywgJzgnLCAnLW1hJywgJzUwMCcsICctaW1hZScsICc8aW5maWxlLm1hZT4nLCAnLW9tYWUnLCAnPG91dGZpbGUubWFlPic=

>  <s_epik_input>  (1) 
W0NIMl0xW0NIMl1bQ0gyXU9bQ0BASF0xW0NASF0yW0NASF0oW09IXSlbQ0gyXU4oW0NASF0oW0NASF0yMylbQ0gyXTMpW0NASF0oW0NIM10pXFtDSF09W0NIXVxbQ0BASF00U1tDSDJdW0NIMl1DND1P

>  <s_glide_docking_method>  (1) 
confgen

>  <s_i_glide_gridfile>  (1) 
gpcr_drd2_6luq_protein_autoprepared_prepared

>  <s_lp_Force_Field>  (1) 
S-OPLS

>  <s_lp_Variant>  (1) 
DiffSBDD_55_num_sample_100-5

>  <s_m_source_file>  (1) 
generated__ligand_DiffSBDD_2026-05-06_prepared.sdf

>  <GenAI_Model>  (1) 
DiffSBDD

>  <Protein>  (1) 
generic_title2

$$$$
DiffSBDD_30_num_sample_100
     RDKit          3D

  0  0  0  0  0  0  0  0  0  0999 V3000
M  V30 BEGIN CTAB
M  V30 COUNTS 49 51 0 0 1
M  V30 BEGIN ATOM
M  V30 1 C 5.987063 5.756155 -14.926537 0
M  V30 2 C 5.341961 7.522484 -17.478192 0
M  V30 3 S 7.519783 6.460390 -12.291733 0
M  V30 4 C 8.559486 5.657552 -11.127260 0
M  V30 5 F 12.301068 9.769620 -6.144398 0
M  V30 6 C 7.494775 5.404903 -15.004682 0 CFG=1
M  V30 7 C 8.257768 5.445588 -13.633819 0 CFG=2
M  V30 8 C 3.966192 7.260090 -16.899663 0
M  V30 9 C 7.739831 4.139218 -15.853714 0
M  V30 10 C 5.691738 7.272193 -14.841357 0
M  V30 11 C 9.470902 5.621699 -8.817191 0
M  V30 12 C 10.229122 6.724599 -8.103987 0
M  V30 13 C 11.799949 8.592658 -8.165936 0
M  V30 14 N 8.634842 6.169302 -9.888472 0
M  V30 15 C 11.629279 8.781574 -6.780962 0
M  V30 16 F 11.267786 7.388529 -10.161383 0
M  V30 17 C 8.184038 2.859921 -12.989126 0
M  V30 18 C 5.034731 7.920127 -16.053654 0
M  V30 19 C 11.101461 7.567056 -8.828239 0
M  V30 20 N 9.192033 4.592273 -11.599004 0 CHG=1
M  V30 21 C 10.061279 6.914021 -6.716787 0
M  V30 22 C 10.762119 7.941722 -6.057000 0
M  V30 23 O 7.491651 4.400320 -17.220331 0
M  V30 24 C 8.956128 4.188256 -12.988581 0 CFG=2
M  V30 25 H 5.484432 5.368560 -15.803584 0
M  V30 26 H 5.528755 5.230963 -14.088001 0
M  V30 27 H 5.434490 8.325372 -18.206477 0
M  V30 28 H 5.992968 6.668596 -17.649749 0
M  V30 29 H 7.947212 6.197884 -15.598292 0
M  V30 30 H 9.128147 6.051626 -13.875633 0
M  V30 31 H 3.688689 6.229324 -16.691703 0
M  V30 32 H 3.148820 7.887496 -17.249017 0
M  V30 33 H 7.086980 3.325257 -15.538956 0
M  V30 34 H 8.773698 3.804548 -15.769025 0
M  V30 35 H 5.052406 7.462213 -13.978951 0
M  V30 36 H 6.611713 7.822541 -14.646918 0
M  V30 37 H 8.829213 5.091344 -8.112717 0
M  V30 38 H 10.185820 4.899193 -9.204281 0
M  V30 39 H 12.465866 9.236125 -8.721190 0
M  V30 40 H 8.035927 6.987203 -9.653450 0
M  V30 41 H 8.234939 2.345517 -13.945626 0
M  V30 42 H 8.631574 2.168996 -12.274764 0
M  V30 43 H 7.134545 2.998617 -12.726551 0
M  V30 44 H 4.882892 8.982809 -15.891805 0
M  V30 45 H 9.393643 6.272470 -6.158833 0
M  V30 46 H 10.634651 8.086166 -4.995638 0
M  V30 47 H 7.662250 3.614859 -17.718964 0
M  V30 48 H 9.920427 4.042171 -13.463369 0
M  V30 49 H 9.814231 4.047777 -11.019105 0
M  V30 END ATOM
M  V30 BEGIN BOND
M  V30 1 1 4 3
M  V30 2 1 6 1
M  V30 3 1 7 3
M  V30 4 1 7 6
M  V30 5 1 8 2
M  V30 6 1 9 6
M  V30 7 1 10 1
M  V30 8 1 12 11
M  V30 9 1 14 4
M  V30 10 1 14 11
M  V30 11 1 15 5
M  V30 12 2 15 13
M  V30 13 1 18 2
M  V30 14 1 18 8
M  V30 15 1 18 10
M  V30 16 2 19 12
M  V30 17 1 19 13
M  V30 18 1 19 16
M  V30 19 2 20 4
M  V30 20 1 21 12
M  V30 21 1 22 15
M  V30 22 2 22 21
M  V30 23 1 23 9
M  V30 24 1 24 7
M  V30 25 1 24 17
M  V30 26 1 24 20
M  V30 27 1 25 1
M  V30 28 1 26 1
M  V30 29 1 27 2
M  V30 30 1 28 2
M  V30 31 1 6 29 CFG=3
M  V30 32 1 7 30 CFG=3
M  V30 33 1 31 8
M  V30 34 1 32 8
M  V30 35 1 33 9
M  V30 36 1 34 9
M  V30 37 1 35 10
M  V30 38 1 36 10
M  V30 39 1 37 11
M  V30 40 1 38 11
M  V30 41 1 39 13
M  V30 42 1 40 14
M  V30 43 1 41 17
M  V30 44 1 42 17
M  V30 45 1 43 17
M  V30 46 1 44 18
M  V30 47 1 45 21
M  V30 48 1 46 22
M  V30 49 1 47 23
M  V30 50 1 24 48 CFG=3
M  V30 51 1 49 20
M  V30 END BOND
M  V30 END CTAB
M  END
>  <i_epik_Tot_Q>  (1) 
1

>  <i_epik_Tot_abs_Q>  (1) 
1

>  <i_i_glide_confnum>  (1) 
303

>  <i_i_glide_lignum>  (1) 
55

>  <i_i_glide_posenum>  (1) 
64

>  <i_i_glide_rotatable_bonds>  (1) 
9

>  <i_lp_mmshare_version>  (1) 
72125

>  <i_m_source_file_index>  (1) 
31

>  <i_f3d_flags>  (1) 
0

>  <num_sample>  (1) 
100

>  <b_lp_Chiralities_Consistent>  (1) 
1

>  <r_epik_Charging_Adjusted_Penalty>  (1) 
0.10703469102833196

>  <r_epik_Ionization_Penalty>  (1) 
0.069318960315332093

>  <r_epik_Ionization_Penalty_Charging>  (1) 
0.03959288354667883

>  <r_epik_Ionization_Penalty_Neutral>  (1) 
0.029726076768653267

>  <r_epik_State_Penalty>  (1) 
0.06744180748165314

>  <r_glide_ring_energy>  (1) 
0

>  <r_i_docking_score>  (1) 
-6.9918132854062165

>  <r_i_glide_ecoul>  (1) 
-9.1518929408398897

>  <r_i_glide_eff_state_penalty>  (1) 
0.06744180748165314

>  <r_i_glide_einternal>  (1) 
10.10395859981077

>  <r_i_glide_emodel>  (1) 
-49.981444817659707

>  <r_i_glide_emodel_strain>  (1) 
2.3689733082543967

>  <r_i_glide_energy>  (1) 
-39.028542760411888

>  <r_i_glide_erotb>  (1) 
1.0592382888714553

>  <r_i_glide_esite>  (1) 
-0.13902582529902771

>  <r_i_glide_evdw>  (1) 
-29.876649819571998

>  <r_i_glide_gscore>  (1) 
-7.0592550928878692

>  <r_i_glide_gscore_strain>  (1) 
0

>  <r_i_glide_hbond>  (1) 
-0.14478236962538066

>  <r_i_glide_ligand_efficiency>  (1) 
-0.29132555355859235

>  <r_i_glide_ligand_efficiency_ln>  (1) 
-1.6734617526035904

>  <r_i_glide_ligand_efficiency_sa>  (1) 
-0.84032830887889542

>  <r_i_glide_lipo>  (1) 
-2.5133074277884608

>  <r_i_glide_metal>  (1) 
-0

>  <r_i_glide_rewards>  (1) 
-2.4547613269418722

>  <r_lp_Energy>  (1) 
13.443218999999999

>  <s_epik_Chemistry_Notes>  (1) 
This compound has an imine and may undergo hydrolysis.

>  <s_epik_cmdline>  (1) 
J2VwaWtfcHl0aG9uJywgJy1waHQnLCAnMS4wJywgJy1waCcsICc3LjQnLCAnLXRuJywgJzgnLCAnLW1hJywgJzUwMCcsICctaW1hZScsICc8aW5maWxlLm1hZT4nLCAnLW9tYWUnLCAnPG91dGZpbGUubWFlPic=

>  <s_epik_input>  (1) 
W0NIMl0xW0NIMl1bQ0hdMVtDSDJdW0NIMl1bQ0BIXShbQ0gyXVtPSF0pW0NAQEhdKFMyKVtDQEhdKFtDSDNdKU49QzJbTkhdW0NIMl1jM2MoRilbY0hdYyhGKVtjSF1bY0hdMw==

>  <s_glide_docking_method>  (1) 
confgen

>  <s_i_glide_gridfile>  (1) 
gpcr_drd2_6luq_protein_autoprepared_prepared

>  <s_lp_Force_Field>  (1) 
S-OPLS

>  <s_lp_Variant>  (1) 
DiffSBDD_30_num_sample_100-1

>  <s_m_source_file>  (1) 
generated__ligand_DiffSBDD_2026-05-06_prepared.sdf

>  <GenAI_Model>  (1) 
DiffSBDD

>  <Protein>  (1) 
generic_title2

$$$$
DiffSBDD_68_num_sample_100
     RDKit          3D

  0  0  0  0  0  0  0  0  0  0999 V3000
M  V30 BEGIN CTAB
M  V30 COUNTS 88 93 0 0 1
M  V30 BEGIN ATOM
M  V30 1 C 8.605433 5.226621 -16.791862 0
M  V30 2 C 6.354966 3.659055 -13.377119 0
M  V30 3 C 12.445670 8.969289 -7.254561 0
M  V30 4 C 9.289789 6.406893 -10.916895 0
M  V30 5 C 5.447060 -0.178215 -20.263503 0
M  V30 6 C 8.173910 1.342676 -17.692339 0 CFG=1
M  V30 7 O 7.503139 4.092283 -18.600098 0
M  V30 8 C 7.739379 1.315892 -14.649185 0
M  V30 9 O 4.634834 0.969313 -20.291659 0
M  V30 10 C 7.434759 4.883414 -10.093767 0
M  V30 11 C 8.520750 0.098760 -16.822536 0
M  V30 12 C 11.434887 8.868433 -6.193630 0
M  V30 13 C 10.858860 8.147086 -9.013894 0 CFG=2
M  V30 14 C 6.815047 1.117579 -18.462673 0 CFG=2
M  V30 15 C 8.418069 4.635973 -14.443442 0 CFG=1
M  V30 16 C 9.783498 8.035397 -7.989377 0 CFG=2
M  V30 17 O 4.873123 -1.212044 -19.498087 0
M  V30 18 C 10.074334 8.289579 -6.537731 0
M  V30 19 C 8.849496 3.769434 -21.871263 0
M  V30 20 C 7.287543 2.511867 -15.511955 0 CFG=1
M  V30 21 C 7.285863 5.864902 -12.490492 0 CFG=2
M  V30 22 C 6.020431 5.019472 -12.756874 0
M  V30 23 O 5.857244 0.588152 -17.562043 0
M  V30 24 O 7.670429 0.644834 -20.811934 0
M  V30 25 C 10.297731 6.785841 -8.680720 0 CFG=1
M  V30 26 C 8.043310 3.994499 -17.500908 0
M  V30 27 C 7.279455 1.816885 -21.535825 0 CFG=1
M  V30 28 C 8.106963 5.996745 -13.775773 0
M  V30 29 C 7.834843 0.002118 -15.436496 0
M  V30 30 C 7.114649 3.839109 -14.709646 0 CFG=1
M  V30 31 C 8.503493 2.496946 -22.124016 0
M  V30 32 O 6.327079 1.554891 -22.559151 0
M  V30 33 C 12.162392 8.621480 -8.528966 0
M  V30 34 C 8.189605 2.625655 -16.777310 0 CFG=2
M  V30 35 C 9.364347 1.487375 -18.679134 0
M  V30 36 O 6.874993 0.554512 -23.468141 0
M  V30 37 N 9.327878 6.141052 -9.506027 0
M  V30 38 S 11.834843 9.369291 -4.663725 0
M  V30 39 C 8.407158 5.327896 -9.052698 0
M  V30 40 O 9.249268 4.874951 -15.576149 0
M  V30 41 O 8.311252 4.969271 -7.891639 0
M  V30 42 C 8.200487 5.354955 -11.357254 0 CFG=1
M  V30 43 C 6.846542 0.190648 -19.724822 0 CFG=2
M  V30 44 H 9.340459 5.691939 -17.448947 0
M  V30 45 H 7.813134 5.955878 -16.624789 0
M  V30 46 H 6.952865 3.085186 -12.669233 0
M  V30 47 H 5.435026 3.094718 -13.524010 0
M  V30 48 H 13.437480 9.323965 -7.009244 0
M  V30 49 H 10.250565 6.243389 -11.403145 0
M  V30 50 H 8.957134 7.430413 -11.093074 0
M  V30 51 H 5.531245 -0.572311 -21.275159 0
M  V30 52 H 7.033387 1.143700 -13.836838 0
M  V30 53 H 8.682314 1.534849 -14.162454 0
M  V30 54 H 3.982223 0.809495 -20.964443 0
M  V30 55 H 6.511112 5.439323 -9.935511 0
M  V30 56 H 7.214321 3.819722 -10.072250 0
M  V30 57 H 8.317859 -0.819331 -17.374551 0
M  V30 58 H 9.597726 0.073578 -16.691669 0
M  V30 59 H 10.577559 8.616443 -9.953172 0
M  V30 60 H 6.378241 2.059453 -18.768660 0
M  V30 61 H 9.038806 4.045695 -13.772887 0
M  V30 62 H 8.810725 8.410818 -8.291708 0
M  V30 63 H 4.841557 -0.895076 -18.604966 0
M  V30 64 H 9.941333 7.355258 -5.990667 0
M  V30 65 H 9.731446 4.205385 -22.316691 0
M  V30 66 H 8.254447 4.389311 -21.216653 0
M  V30 67 H 6.283981 2.266958 -15.846060 0
M  V30 68 H 6.943744 6.858985 -12.197577 0
M  V30 69 H 5.432757 4.882935 -11.850066 0
M  V30 70 H 5.370107 5.567726 -13.439543 0
M  V30 71 H 6.302838 -0.024864 -16.995470 0
M  V30 72 H 10.938837 6.127399 -8.094968 0
M  V30 73 H 6.821053 2.534764 -20.857342 0
M  V30 74 H 9.034594 6.498701 -13.505377 0
M  V30 75 H 7.583819 6.649776 -14.474320 0
M  V30 76 H 6.838554 -0.426996 -15.526043 0
M  V30 77 H 8.381765 -0.718147 -14.829293 0
M  V30 78 H 6.467973 4.476900 -15.315133 0
M  V30 79 H 9.116887 1.899540 -22.782825 0
M  V30 80 H 12.940541 8.708500 -9.273033 0
M  V30 81 H 9.205916 2.657457 -16.386031 0
M  V30 82 H 10.287582 1.745767 -18.158046 0
M  V30 83 H 9.564000 0.557050 -19.211496 0
M  V30 84 H 9.199199 2.264894 -19.421585 0
M  V30 85 H 6.553254 -0.241110 -23.073817 0
M  V30 86 H 9.309302 8.969279 -6.163360 0
M  V30 87 H 8.740105 4.470116 -11.692920 0
M  V30 88 H 7.322495 -0.746163 -19.434298 0
M  V30 END ATOM
M  V30 BEGIN BOND
M  V30 1 1 9 5
M  V30 2 1 11 6
M  V30 3 1 12 3
M  V30 4 1 14 6
M  V30 5 1 16 13
M  V30 6 1 17 5
M  V30 7 1 18 12
M  V30 8 1 18 16
M  V30 9 1 20 8
M  V30 10 1 22 2
M  V30 11 1 22 21
M  V30 12 1 23 14
M  V30 13 1 25 13
M  V30 14 1 25 16
M  V30 15 1 26 1
M  V30 16 2 26 7
M  V30 17 1 27 24
M  V30 18 1 28 15
M  V30 19 1 28 21
M  V30 20 1 29 8
M  V30 21 1 29 11
M  V30 22 1 30 2
M  V30 23 1 30 15
M  V30 24 1 30 20
M  V30 25 2 31 19
M  V30 26 1 31 27
M  V30 27 1 32 27
M  V30 28 2 33 3
M  V30 29 1 33 13
M  V30 30 1 34 6
M  V30 31 1 34 20
M  V30 32 1 34 26
M  V30 33 1 6 35 CFG=3
M  V30 34 1 36 32
M  V30 35 1 37 4
M  V30 36 1 37 25
M  V30 37 2 38 12
M  V30 38 1 39 10
M  V30 39 1 39 37
M  V30 40 1 40 1
M  V30 41 1 40 15
M  V30 42 2 41 39
M  V30 43 1 42 4
M  V30 44 1 42 10
M  V30 45 1 42 21
M  V30 46 1 43 5
M  V30 47 1 43 14
M  V30 48 1 43 24
M  V30 49 1 44 1
M  V30 50 1 45 1
M  V30 51 1 46 2
M  V30 52 1 47 2
M  V30 53 1 48 3
M  V30 54 1 49 4
M  V30 55 1 50 4
M  V30 56 1 51 5
M  V30 57 1 52 8
M  V30 58 1 53 8
M  V30 59 1 54 9
M  V30 60 1 55 10
M  V30 61 1 56 10
M  V30 62 1 57 11
M  V30 63 1 58 11
M  V30 64 1 13 59 CFG=3
M  V30 65 1 14 60 CFG=3
M  V30 66 1 15 61 CFG=1
M  V30 67 1 16 62 CFG=3
M  V30 68 1 63 17
M  V30 69 1 64 18
M  V30 70 1 65 19
M  V30 71 1 66 19
M  V30 72 1 20 67 CFG=3
M  V30 73 1 21 68 CFG=1
M  V30 74 1 69 22
M  V30 75 1 70 22
M  V30 76 1 71 23
M  V30 77 1 25 72 CFG=1
M  V30 78 1 27 73 CFG=1
M  V30 79 1 74 28
M  V30 80 1 75 28
M  V30 81 1 76 29
M  V30 82 1 77 29
M  V30 83 1 30 78 CFG=3
M  V30 84 1 79 31
M  V30 85 1 80 33
M  V30 86 1 34 81 CFG=1
M  V30 87 1 82 35
M  V30 88 1 83 35
M  V30 89 1 84 35
M  V30 90 1 85 36
M  V30 91 1 86 18
M  V30 92 1 42 87 CFG=3
M  V30 93 1 43 88 CFG=1
M  V30 END BOND
M  V30 END CTAB
M  END
>  <i_epik_Tot_Q>  (1) 
0

>  <i_epik_Tot_abs_Q>  (1) 
0

>  <i_i_glide_confnum>  (1) 
1639

>  <i_i_glide_lignum>  (1) 
138

>  <i_i_glide_posenum>  (1) 
213

>  <i_i_glide_rotatable_bonds>  (1) 
13

>  <i_lp_mmshare_version>  (1) 
72125

>  <i_m_source_file_index>  (1) 
69

>  <i_f3d_flags>  (1) 
0

>  <num_sample>  (1) 
100

>  <b_lp_Chiralities_Consistent>  (1) 
1

>  <r_epik_Charging_Adjusted_Penalty>  (1) 
0

>  <r_epik_Ionization_Penalty>  (1) 
0.00032218278010154739

>  <r_epik_Ionization_Penalty_Charging>  (1) 
0

>  <r_epik_Ionization_Penalty_Neutral>  (1) 
0.00032218278010154739

>  <r_epik_State_Penalty>  (1) 
-0

>  <r_glide_ring_energy>  (1) 
0

>  <r_i_docking_score>  (1) 
-6.9874630499626216

>  <r_i_glide_ecoul>  (1) 
-5.5901429419410533

>  <r_i_glide_eff_state_penalty>  (1) 
-0

>  <r_i_glide_einternal>  (1) 
20.190258508772093

>  <r_i_glide_emodel>  (1) 
-59.836369744776242

>  <r_i_glide_emodel_strain>  (1) 
0.61355768187725346

>  <r_i_glide_energy>  (1) 
-52.839852110469835

>  <r_i_glide_erotb>  (1) 
0.36271052330308029

>  <r_i_glide_esite>  (1) 
-0.21185556939285999

>  <r_i_glide_evdw>  (1) 
-47.249709168528781

>  <r_i_glide_gscore>  (1) 
-6.9874630499626216

>  <r_i_glide_gscore_strain>  (1) 
0

>  <r_i_glide_hbond>  (1) 
-0.32000000000000001

>  <r_i_glide_ligand_efficiency>  (1) 
-0.16249914069680516

>  <r_i_glide_ligand_efficiency_ln>  (1) 
-1.4675844073285209

>  <r_i_glide_ligand_efficiency_sa>  (1) 
-0.56929917433169663

>  <r_i_glide_lipo>  (1) 
-1.8367292291396331

>  <r_i_glide_metal>  (1) 
-0

>  <r_i_glide_rewards>  (1) 
-1.7805818750156122

>  <r_lp_Energy>  (1) 
42.877758

>  <r_lp_tautomer_probability>  (1) 
1

>  <s_epik_Chemistry_Notes>  (1) 
This compound contains an acetal/aminal-like group ( X-CH(R)-Y where X, Y are N, S, or O) that may be acid/base labile, releasing an aldehyde.

>  <s_epik_cmdline>  (1) 
J2VwaWtfcHl0aG9uJywgJy1waHQnLCAnMS4wJywgJy1waCcsICc3LjQnLCAnLXRuJywgJzgnLCAnLW1hJywgJzUwMCcsICctaW1hZScsICc8aW5maWxlLm1hZT4nLCAnLW9tYWUnLCAnPG91dGZpbGUubWFlPic=

>  <s_epik_input>  (1) 
W0NIMl09W0NIXVtDQEBIXShPW09IXSlPW0NASF0oW0NIXShbT0hdKVtPSF0pW0NAQEhdKFtPSF0pW0NAXShbQ0gzXSkoW0NIMl1bQ0gyXVtDSDJdMSlbQ0BASF0oQyg9TylbQ0gyXU8yKVtDQEBIXTFbQ0BASF0oW0NAQEhdMjMpW0NIMl1bQ0gyXVtDQEhdKFtDSDJdMylbQ0BIXShbQ0gyXUM0PU8pW0NIMl1ONFtDQEBIXTVbQ0BIXShbQ0BIXTU2KVtDSF09QyhbU0hdKVtDSF09W0NIXTY=

>  <s_glide_docking_method>  (1) 
confgen

>  <s_i_glide_gridfile>  (1) 
gpcr_drd2_6luq_protein_autoprepared_prepared

>  <s_lp_Force_Field>  (1) 
S-OPLS

>  <s_lp_Variant>  (1) 
DiffSBDD_68_num_sample_100-2

>  <s_m_source_file>  (1) 
generated__ligand_DiffSBDD_2026-05-06_prepared.sdf

>  <GenAI_Model>  (1) 
DiffSBDD

>  <Protein>  (1) 
generic_title2

$$$$
DiffSBDD_55_num_sample_100
     RDKit          3D

  0  0  0  0  0  0  0  0  0  0999 V3000
M  V30 BEGIN CTAB
M  V30 COUNTS 51 54 0 0 1
M  V30 BEGIN ATOM
M  V30 1 O 6.505157 4.454591 -13.909922 0
M  V30 2 C 12.132949 7.754827 -3.693437 0
M  V30 3 C 9.028397 7.332709 -11.734576 0
M  V30 4 C 11.688382 7.782430 -10.084738 0
M  V30 5 C 8.823380 4.611384 -10.902653 0 CFG=2
M  V30 6 C 8.284080 4.993574 -12.283965 0 CFG=1
M  V30 7 S 11.405078 9.978816 -5.101967 0
M  V30 8 C 12.525161 9.219726 -3.891722 0
M  V30 9 C 11.434840 7.332411 -4.977252 0
M  V30 10 C 7.428514 2.485880 -14.591264 0
M  V30 11 N 9.249000 7.062401 -10.292448 0 CFG=2 CHG=1
M  V30 12 C 7.151458 4.017866 -12.718710 0 CFG=2
M  V30 13 C 7.874980 6.486674 -12.290769 0 CFG=2
M  V30 14 C 7.649900 2.604627 -13.091666 0
M  V30 15 C 7.210100 3.926973 -15.018992 0
M  V30 16 C 10.983255 8.287012 -7.255965 0
M  V30 17 C 10.219522 8.000541 -9.663247 0 CFG=1
M  V30 18 C 10.746134 8.432427 -5.767394 0 CFG=2
M  V30 19 C 8.091750 4.969301 -9.625376 0
M  V30 20 O 11.434834 6.169302 -5.357103 0
M  V30 21 O 7.615294 6.963344 -13.595243 0
M  V30 22 C 9.996728 8.136609 -8.161047 0
M  V30 23 C 9.417617 5.630232 -9.939462 0 CFG=1
M  V30 24 H 13.001938 7.130341 -3.489002 0
M  V30 25 H 11.436266 7.643227 -2.863173 0
M  V30 26 H 9.938155 7.143335 -12.304049 0
M  V30 27 H 8.787508 8.389500 -11.861787 0
M  V30 28 H 12.282741 8.675315 -9.885274 0
M  V30 29 H 12.147992 6.969316 -9.533165 0
M  V30 30 H 11.795864 7.568433 -11.146039 0
M  V30 31 H 9.320992 3.643497 -10.896257 0
M  V30 32 H 9.115221 4.885255 -12.983022 0
M  V30 33 H 13.536259 9.288714 -4.291661 0
M  V30 34 H 12.505231 9.769312 -2.950480 0
M  V30 35 H 6.527904 1.902954 -14.785802 0
M  V30 36 H 8.251927 2.005437 -15.117027 0
M  V30 37 H 6.397565 3.964867 -11.931822 0
M  V30 38 H 6.967705 6.638744 -11.704098 0
M  V30 39 H 8.700853 2.460788 -12.839051 0
M  V30 40 H 7.081492 1.831643 -12.574737 0
M  V30 41 H 6.634948 4.016716 -15.939051 0
M  V30 42 H 8.156765 4.452705 -15.152023 0
M  V30 43 H 12.012808 8.312401 -7.580352 0
M  V30 44 H 9.926684 8.969301 -10.039501 0
M  V30 45 H 9.676443 8.382326 -5.568565 0
M  V30 46 H 8.081797 4.247935 -8.812360 0
M  V30 47 H 7.177061 5.550586 -9.708865 0
M  V30 48 H 7.047212 7.717058 -13.539652 0
M  V30 49 H 8.969016 8.112429 -7.824841 0
M  V30 50 H 10.234834 5.390429 -9.266315 0
M  V30 51 H 8.347940 7.334069 -9.883495 0
M  V30 END ATOM
M  V30 BEGIN BOND
M  V30 1 1 6 5
M  V30 2 1 8 2
M  V30 3 1 8 7
M  V30 4 1 9 2
M  V30 5 1 11 3
M  V30 6 1 12 1
M  V30 7 1 12 6
M  V30 8 1 13 3
M  V30 9 1 13 6
M  V30 10 1 14 10
M  V30 11 1 14 12
M  V30 12 1 15 1
M  V30 13 1 15 10
M  V30 14 1 17 4
M  V30 15 1 17 11
M  V30 16 1 18 7
M  V30 17 1 18 9
M  V30 18 1 18 16
M  V30 19 1 19 5
M  V30 20 2 20 9
M  V30 21 1 21 13
M  V30 22 2 22 16
M  V30 23 1 22 17
M  V30 24 1 23 5
M  V30 25 1 23 11
M  V30 26 1 23 19
M  V30 27 1 24 2
M  V30 28 1 25 2
M  V30 29 1 26 3
M  V30 30 1 27 3
M  V30 31 1 28 4
M  V30 32 1 29 4
M  V30 33 1 30 4
M  V30 34 1 5 31 CFG=3
M  V30 35 1 6 32 CFG=3
M  V30 36 1 33 8
M  V30 37 1 34 8
M  V30 38 1 35 10
M  V30 39 1 36 10
M  V30 40 1 12 37 CFG=1
M  V30 41 1 13 38 CFG=1
M  V30 42 1 39 14
M  V30 43 1 40 14
M  V30 44 1 41 15
M  V30 45 1 42 15
M  V30 46 1 43 16
M  V30 47 1 17 44 CFG=3
M  V30 48 1 18 45 CFG=3
M  V30 49 1 46 19
M  V30 50 1 47 19
M  V30 51 1 48 21
M  V30 52 1 49 22
M  V30 53 1 23 50 CFG=1
M  V30 54 1 11 51 CFG=1
M  V30 END BOND
M  V30 END CTAB
M  END
>  <i_epik_Tot_Q>  (1) 
1

>  <i_epik_Tot_abs_Q>  (1) 
1

>  <i_i_glide_confnum>  (1) 
237

>  <i_i_glide_lignum>  (1) 
104

>  <i_i_glide_posenum>  (1) 
43

>  <i_i_glide_rotatable_bonds>  (1) 
5

>  <i_lp_mmshare_version>  (1) 
72125

>  <i_m_source_file_index>  (1) 
56

>  <i_f3d_flags>  (1) 
0

>  <num_sample>  (1) 
100

>  <b_lp_Chiralities_Consistent>  (1) 
1

>  <r_epik_Charging_Adjusted_Penalty>  (1) 
0.1887110856522376

>  <r_epik_Ionization_Penalty>  (1) 
0.094355642401006162

>  <r_epik_Ionization_Penalty_Charging>  (1) 
0.094355542826118813

>  <r_epik_Ionization_Penalty_Neutral>  (1) 
9.9574887353862298e-08

>  <r_epik_State_Penalty>  (1) 
0.094355542826118799

>  <r_glide_ring_energy>  (1) 
1.602213049698493

>  <r_i_docking_score>  (1) 
-6.9853094086691963

>  <r_i_glide_ecoul>  (1) 
-6.128839785615547

>  <r_i_glide_eff_state_penalty>  (1) 
0.094355542826118799

>  <r_i_glide_einternal>  (1) 
4.1388671021145047

>  <r_i_glide_emodel>  (1) 
-55.808636018742021

>  <r_i_glide_emodel_strain>  (1) 
2.4438210307248269

>  <r_i_glide_energy>  (1) 
-40.868308348711807

>  <r_i_glide_erotb>  (1) 
0.49519417565235591

>  <r_i_glide_esite>  (1) 
-0.10000000000000001

>  <r_i_glide_evdw>  (1) 
-34.73946856309626

>  <r_i_glide_gscore>  (1) 
-7.0796649514953147

>  <r_i_glide_gscore_strain>  (1) 
0

>  <r_i_glide_hbond>  (1) 
-0.20000000000000001

>  <r_i_glide_ligand_efficiency>  (1) 
-0.30370910472474766

>  <r_i_glide_ligand_efficiency_ln>  (1) 
-1.689111154300033

>  <r_i_glide_ligand_efficiency_sa>  (1) 
-0.86370829440699104

>  <r_i_glide_lipo>  (1) 
-2.3112944647905977

>  <r_i_glide_metal>  (1) 
-0

>  <r_i_glide_rewards>  (1) 
-2.307265266359928

>  <r_lp_Energy>  (1) 
21.402259999999998

>  <r_lp_tautomer_probability>  (1) 
0.99995000000000001

>  <s_epik_cmdline>  (1) 
J2VwaWtfcHl0aG9uJywgJy1waHQnLCAnMS4wJywgJy1waCcsICc3LjQnLCAnLXRuJywgJzgnLCAnLW1hJywgJzUwMCcsICctaW1hZScsICc8aW5maWxlLm1hZT4nLCAnLW9tYWUnLCAnPG91dGZpbGUubWFlPic=

>  <s_epik_input>  (1) 
W0NIMl0xW0NIMl1bQ0gyXU9bQ0BASF0xW0NASF0yW0NASF0oW09IXSlbQ0gyXU4oW0NASF0oW0NASF0yMylbQ0gyXTMpW0NASF0oW0NIM10pXFtDSF09W0NIXVxbQ0BASF00U1tDSDJdW0NIMl1DND1P

>  <s_glide_docking_method>  (1) 
confgen

>  <s_i_glide_gridfile>  (1) 
gpcr_drd2_6luq_protein_autoprepared_prepared

>  <s_lp_Force_Field>  (1) 
S-OPLS

>  <s_lp_Variant>  (1) 
DiffSBDD_55_num_sample_100-5

>  <s_m_source_file>  (1) 
generated__ligand_DiffSBDD_2026-05-06_prepared.sdf

>  <GenAI_Model>  (1) 
DiffSBDD

>  <Protein>  (1) 
generic_title2

$$$$
DiffSBDD_55_num_sample_100
     RDKit          3D

  0  0  0  0  0  0  0  0  0  0999 V3000
M  V30 BEGIN CTAB
M  V30 COUNTS 51 54 0 0 1
M  V30 BEGIN ATOM
M  V30 1 O 8.617330 5.767301 -14.148744 0
M  V30 2 C 12.365899 9.098810 -3.491514 0
M  V30 3 C 9.836389 7.188583 -10.002775 0
M  V30 4 C 9.444673 8.479882 -7.360421 0
M  V30 5 C 8.745168 4.637982 -10.559463 0 CFG=2
M  V30 6 C 9.111471 5.499114 -11.755644 0 CFG=1
M  V30 7 S 11.434854 6.569294 -3.308981 0
M  V30 8 C 12.658274 7.782086 -2.776911 0
M  V30 9 C 11.828719 8.688614 -4.847579 0
M  V30 10 C 7.469966 3.782905 -14.681191 0
M  V30 11 N 9.034842 6.570785 -8.915245 0 CFG=2 CHG=1
M  V30 12 C 8.138659 5.215460 -12.927300 0 CFG=2
M  V30 13 C 9.139724 6.983771 -11.351924 0 CFG=2
M  V30 14 C 7.926040 3.732687 -13.241757 0
M  V30 15 C 8.345161 4.897972 -15.243506 0
M  V30 16 C 11.481066 6.439128 -6.053392 0
M  V30 17 C 9.448390 6.943341 -7.528046 0 CFG=1
M  V30 18 C 11.078821 7.346369 -4.904158 0 CFG=1
M  V30 19 C 7.452910 4.873638 -9.816885 0
M  V30 20 O 11.986435 9.391742 -5.843063 0
M  V30 21 O 9.834795 7.744432 -12.291662 0
M  V30 22 C 10.776050 6.262026 -7.188606 0
M  V30 23 C 8.773836 5.122483 -9.118561 0 CFG=1
M  V30 24 H 11.601625 9.669056 -2.961539 0
M  V30 25 H 13.253282 9.724076 -3.579699 0
M  V30 26 H 10.845993 6.782118 -10.012048 0
M  V30 27 H 9.935104 8.260794 -9.843144 0
M  V30 28 H 9.291512 8.802176 -6.333147 0
M  V30 29 H 10.367731 8.928652 -7.727440 0
M  V30 30 H 8.632241 8.936286 -7.920049 0
M  V30 31 H 9.038857 3.600875 -10.691686 0
M  V30 32 H 10.118520 5.201445 -12.055004 0
M  V30 33 H 12.658363 7.887973 -1.691281 0
M  V30 34 H 13.634233 7.406089 -3.089849 0
M  V30 35 H 6.418524 4.070503 -14.728598 0
M  V30 36 H 7.594878 2.835758 -15.206682 0
M  V30 37 H 7.167172 5.669009 -12.724940 0
M  V30 38 H 8.128765 7.380559 -11.311148 0
M  V30 39 H 8.864089 3.181573 -13.159214 0
M  V30 40 H 7.193900 3.260584 -12.584762 0
M  V30 41 H 7.863542 5.431068 -16.063948 0
M  V30 42 H 9.292100 4.496948 -15.610495 0
M  V30 43 H 12.403511 5.896530 -5.929075 0
M  V30 44 H 8.689871 6.533992 -6.858485 0
M  V30 45 H 10.008218 7.512601 -4.948635 0
M  V30 46 H 6.884325 3.997575 -9.514732 0
M  V30 47 H 6.845700 5.728220 -10.113182 0
M  V30 48 H 9.381048 8.563204 -12.428449 0
M  V30 49 H 11.159535 5.585374 -7.929878 0
M  V30 50 H 9.080573 4.452326 -8.317216 0
M  V30 51 H 8.113799 7.022997 -9.037692 0
M  V30 END ATOM
M  V30 BEGIN BOND
M  V30 1 1 6 5
M  V30 2 1 8 2
M  V30 3 1 8 7
M  V30 4 1 9 2
M  V30 5 1 11 3
M  V30 6 1 12 1
M  V30 7 1 12 6
M  V30 8 1 13 3
M  V30 9 1 13 6
M  V30 10 1 14 10
M  V30 11 1 14 12
M  V30 12 1 15 1
M  V30 13 1 15 10
M  V30 14 1 17 4
M  V30 15 1 17 11
M  V30 16 1 18 7
M  V30 17 1 18 9
M  V30 18 1 18 16
M  V30 19 1 19 5
M  V30 20 2 20 9
M  V30 21 1 21 13
M  V30 22 2 22 16
M  V30 23 1 22 17
M  V30 24 1 23 5
M  V30 25 1 23 11
M  V30 26 1 23 19
M  V30 27 1 24 2
M  V30 28 1 25 2
M  V30 29 1 26 3
M  V30 30 1 27 3
M  V30 31 1 28 4
M  V30 32 1 29 4
M  V30 33 1 30 4
M  V30 34 1 5 31 CFG=1
M  V30 35 1 6 32 CFG=3
M  V30 36 1 33 8
M  V30 37 1 34 8
M  V30 38 1 35 10
M  V30 39 1 36 10
M  V30 40 1 12 37 CFG=1
M  V30 41 1 13 38 CFG=1
M  V30 42 1 39 14
M  V30 43 1 40 14
M  V30 44 1 41 15
M  V30 45 1 42 15
M  V30 46 1 43 16
M  V30 47 1 17 44 CFG=1
M  V30 48 1 18 45 CFG=1
M  V30 49 1 46 19
M  V30 50 1 47 19
M  V30 51 1 48 21
M  V30 52 1 49 22
M  V30 53 1 23 50 CFG=1
M  V30 54 1 11 51 CFG=3
M  V30 END BOND
M  V30 END CTAB
M  END
>  <i_epik_Tot_Q>  (1) 
1

>  <i_epik_Tot_abs_Q>  (1) 
1

>  <i_i_glide_confnum>  (1) 
76

>  <i_i_glide_lignum>  (1) 
102

>  <i_i_glide_posenum>  (1) 
258

>  <i_i_glide_rotatable_bonds>  (1) 
5

>  <i_lp_mmshare_version>  (1) 
72125

>  <i_m_source_file_index>  (1) 
56

>  <i_f3d_flags>  (1) 
0

>  <num_sample>  (1) 
100

>  <b_lp_Chiralities_Consistent>  (1) 
1

>  <r_epik_Charging_Adjusted_Penalty>  (1) 
0.1887110856522376

>  <r_epik_Ionization_Penalty>  (1) 
0.094355642401006162

>  <r_epik_Ionization_Penalty_Charging>  (1) 
0.094355542826118813

>  <r_epik_Ionization_Penalty_Neutral>  (1) 
9.9574887353862298e-08

>  <r_epik_State_Penalty>  (1) 
0.094355542826118799

>  <r_glide_ring_energy>  (1) 
0.84612545809472284

>  <r_i_docking_score>  (1) 
-6.9756346451868012

>  <r_i_glide_ecoul>  (1) 
-7.2194888544176621

>  <r_i_glide_eff_state_penalty>  (1) 
0.094355542826118799

>  <r_i_glide_einternal>  (1) 
5.2495769962410508

>  <r_i_glide_emodel>  (1) 
-50.525723259254441

>  <r_i_glide_emodel_strain>  (1) 
2.8845530672544157

>  <r_i_glide_energy>  (1) 
-35.964190437004

>  <r_i_glide_erotb>  (1) 
0.34663592295664913

>  <r_i_glide_esite>  (1) 
-0.10000000000000001

>  <r_i_glide_evdw>  (1) 
-28.744701582586337

>  <r_i_glide_gscore>  (1) 
-7.0699901880129197

>  <r_i_glide_gscore_strain>  (1) 
0

>  <r_i_glide_hbond>  (1) 
-0.17240089657480856

>  <r_i_glide_ligand_efficiency>  (1) 
-0.30328846283420874

>  <r_i_glide_ligand_efficiency_ln>  (1) 
-1.6867717087640848

>  <r_i_glide_ligand_efficiency_sa>  (1) 
-0.86251204482414501

>  <r_i_glide_lipo>  (1) 
-1.8528662960283568

>  <r_i_glide_metal>  (1) 
-0

>  <r_i_glide_rewards>  (1) 
-2.7712005110744364

>  <r_lp_Energy>  (1) 
23.901119999999999

>  <r_lp_tautomer_probability>  (1) 
0.99995000000000001

>  <s_epik_cmdline>  (1) 
J2VwaWtfcHl0aG9uJywgJy1waHQnLCAnMS4wJywgJy1waCcsICc3LjQnLCAnLXRuJywgJzgnLCAnLW1hJywgJzUwMCcsICctaW1hZScsICc8aW5maWxlLm1hZT4nLCAnLW9tYWUnLCAnPG91dGZpbGUubWFlPic=

>  <s_epik_input>  (1) 
W0NIMl0xW0NIMl1bQ0gyXU9bQ0BASF0xW0NASF0yW0NASF0oW09IXSlbQ0gyXU4oW0NASF0oW0NASF0yMylbQ0gyXTMpW0NASF0oW0NIM10pL1tDSF09W0NIXVxbQ0BIXTRTW0NIMl1bQ0gyXUM0PU8=

>  <s_glide_docking_method>  (1) 
confgen

>  <s_i_glide_gridfile>  (1) 
gpcr_drd2_6luq_protein_autoprepared_prepared

>  <s_lp_Force_Field>  (1) 
S-OPLS

>  <s_lp_Variant>  (1) 
DiffSBDD_55_num_sample_100-3

>  <s_m_source_file>  (1) 
generated__ligand_DiffSBDD_2026-05-06_prepared.sdf

>  <GenAI_Model>  (1) 
DiffSBDD

>  <Protein>  (1) 
generic_title2

$$$$
DiffSBDD_48_num_sample_100
     RDKit          3D

  0  0  0  0  0  0  0  0  0  0999 V3000
M  V30 BEGIN CTAB
M  V30 COUNTS 51 53 0 0 1
M  V30 BEGIN ATOM
M  V30 1 O 12.634859 7.225148 -1.799220 0
M  V30 2 O 5.537868 4.169328 -10.691666 0
M  V30 3 C 10.729702 6.607713 -6.349386 0
M  V30 4 C 5.376803 5.539550 -10.981842 0
M  V30 5 C 7.695079 5.552083 -12.123462 0
M  V30 6 N 10.732898 7.749606 -7.380760 0
M  V30 7 C 6.208658 5.966405 -12.210855 0 CFG=2
M  V30 8 N 9.834813 7.683443 -8.476095 0
M  V30 9 C 11.809286 9.605559 -4.491899 0
M  V30 10 C 6.076955 7.471658 -12.444758 0
M  V30 11 C 9.441304 6.780043 -10.784697 0
M  V30 12 C 12.796982 5.830522 -1.617526 0
M  V30 13 C 8.682362 4.698726 -10.014261 0
M  V30 14 C 12.207391 7.706607 -3.007510 0
M  V30 15 C 11.329821 8.716697 -5.453906 0
M  V30 16 C 12.254049 9.098789 -3.253427 0
M  V30 17 C 9.520769 5.257061 -8.882571 0
M  V30 18 C 10.094570 6.590120 -9.402707 0 CFG=2
M  V30 19 O 5.645661 5.357923 -13.358146 0
M  V30 20 N 8.281196 5.872556 -10.798326 0 CFG=2 CHG=1
M  V30 21 C 11.271749 7.395375 -5.228494 0
M  V30 22 C 11.701687 6.837680 -4.014140 0
M  V30 23 C 10.851502 9.135377 -6.773259 0
M  V30 24 H 5.248121 4.043935 -9.794273 0
M  V30 25 H 9.717077 6.274014 -6.120633 0
M  V30 26 H 11.375144 5.783734 -6.654976 0
M  V30 27 H 4.321331 5.769343 -11.091601 0
M  V30 28 H 5.686333 6.100258 -10.103690 0
M  V30 29 H 7.778005 4.478619 -12.305683 0
M  V30 30 H 8.267124 6.027413 -12.921563 0
M  V30 31 H 8.868677 7.669422 -8.145694 0
M  V30 32 H 11.834840 10.660376 -4.695661 0
M  V30 33 H 6.478072 8.050459 -11.613596 0
M  V30 34 H 6.617616 7.769299 -13.343142 0
M  V30 35 H 5.034859 7.769148 -12.567641 0
M  V30 36 H 10.146558 6.480872 -11.562438 0
M  V30 37 H 9.142425 7.811160 -10.981167 0
M  V30 38 H 13.335058 5.629894 -0.691699 0
M  V30 39 H 11.816594 5.369308 -1.558452 0
M  V30 40 H 13.383841 5.369312 -2.404811 0
M  V30 41 H 7.814037 4.169324 -9.632966 0
M  V30 42 H 9.280859 4.017783 -10.622837 0
M  V30 43 H 12.628660 9.769298 -2.494901 0
M  V30 44 H 8.854203 5.428827 -8.036327 0
M  V30 45 H 10.279762 4.553069 -8.552038 0
M  V30 46 H 11.174957 6.569298 -9.540139 0
M  V30 47 H 6.122255 5.641181 -14.123134 0
M  V30 48 H 11.643443 5.771920 -3.854082 0
M  V30 49 H 11.557806 9.757954 -7.322623 0
M  V30 50 H 9.870259 9.594937 -6.691663 0
M  V30 51 H 7.577961 6.376640 -10.257232 0
M  V30 END ATOM
M  V30 BEGIN BOND
M  V30 1 1 4 2
M  V30 2 1 6 3
M  V30 3 1 7 4
M  V30 4 1 7 5
M  V30 5 1 8 6
M  V30 6 1 10 7
M  V30 7 1 12 1
M  V30 8 1 14 1
M  V30 9 1 15 9
M  V30 10 2 16 9
M  V30 11 1 16 14
M  V30 12 1 17 13
M  V30 13 1 18 8
M  V30 14 1 18 11
M  V30 15 1 18 17
M  V30 16 1 7 19 CFG=3
M  V30 17 1 20 5
M  V30 18 1 20 11
M  V30 19 1 20 13
M  V30 20 1 21 3
M  V30 21 2 21 15
M  V30 22 2 22 14
M  V30 23 1 22 21
M  V30 24 1 23 6
M  V30 25 1 23 15
M  V30 26 1 24 2
M  V30 27 1 25 3
M  V30 28 1 26 3
M  V30 29 1 27 4
M  V30 30 1 28 4
M  V30 31 1 29 5
M  V30 32 1 30 5
M  V30 33 1 31 8
M  V30 34 1 32 9
M  V30 35 1 33 10
M  V30 36 1 34 10
M  V30 37 1 35 10
M  V30 38 1 36 11
M  V30 39 1 37 11
M  V30 40 1 38 12
M  V30 41 1 39 12
M  V30 42 1 40 12
M  V30 43 1 41 13
M  V30 44 1 42 13
M  V30 45 1 43 16
M  V30 46 1 44 17
M  V30 47 1 45 17
M  V30 48 1 18 46 CFG=3
M  V30 49 1 47 19
M  V30 50 1 48 22
M  V30 51 1 49 23
M  V30 52 1 50 23
M  V30 53 1 20 51 CFG=1
M  V30 END BOND
M  V30 END CTAB
M  END
>  <i_epik_Tot_Q>  (1) 
1

>  <i_epik_Tot_abs_Q>  (1) 
1

>  <i_i_glide_confnum>  (1) 
86

>  <i_i_glide_lignum>  (1) 
90

>  <i_i_glide_posenum>  (1) 
257

>  <i_i_glide_rotatable_bonds>  (1) 
8

>  <i_lp_mmshare_version>  (1) 
72125

>  <i_m_source_file_index>  (1) 
49

>  <i_f3d_flags>  (1) 
0

>  <num_sample>  (1) 
100

>  <b_lp_Chiralities_Consistent>  (1) 
1

>  <r_epik_Charging_Adjusted_Penalty>  (1) 
0.014070542232369893

>  <r_epik_Ionization_Penalty>  (1) 
0.01444304470814459

>  <r_epik_Ionization_Penalty_Charging>  (1) 
0.014070542232369893

>  <r_epik_Ionization_Penalty_Neutral>  (1) 
0.00037250247577469821

>  <r_epik_State_Penalty>  (1) 
-0

>  <r_glide_ring_energy>  (1) 
0

>  <r_i_docking_score>  (1) 
-6.9732594609799321

>  <r_i_glide_ecoul>  (1) 
-10.908595335611444

>  <r_i_glide_eff_state_penalty>  (1) 
-0

>  <r_i_glide_einternal>  (1) 
9.766511112036854

>  <r_i_glide_emodel>  (1) 
-56.68967822861697

>  <r_i_glide_emodel_strain>  (1) 
0.70425012959415767

>  <r_i_glide_energy>  (1) 
-39.821713948702524

>  <r_i_glide_erotb>  (1) 
0.89938055447957976

>  <r_i_glide_esite>  (1) 
-0.18389072573718726

>  <r_i_glide_evdw>  (1) 
-28.913118613091076

>  <r_i_glide_gscore>  (1) 
-6.9732594609799321

>  <r_i_glide_gscore_strain>  (1) 
0

>  <r_i_glide_hbond>  (1) 
-0.52989615555577263

>  <r_i_glide_ligand_efficiency>  (1) 
-0.30318519395564925

>  <r_i_glide_ligand_efficiency_ln>  (1) 
-1.6861973676858844

>  <r_i_glide_ligand_efficiency_sa>  (1) 
-0.86221836187036327

>  <r_i_glide_lipo>  (1) 
-2.2898796741907219

>  <r_i_glide_metal>  (1) 
-0

>  <r_i_glide_rewards>  (1) 
-1.7870282289795587

>  <r_lp_Energy>  (1) 
29.344918999999997

>  <r_lp_tautomer_probability>  (1) 
1

>  <s_epik_cmdline>  (1) 
J2VwaWtfcHl0aG9uJywgJy1waHQnLCAnMS4wJywgJy1waCcsICc3LjQnLCAnLXRuJywgJzgnLCAnLW1hJywgJzUwMCcsICctaW1hZScsICc8aW5maWxlLm1hZT4nLCAnLW9tYWUnLCAnPG91dGZpbGUubWFlPic=

>  <s_epik_input>  (1) 
W2NIXTFbY0hdYyhPW0NIM10pW2NIXWMoYzEyKVtDSDJdTihbQ0gyXTIpW05IXVtDQEBIXTNbQ0gyXU4oW0NIMl1bQ0gyXTMpW0NIMl1bQ0BAXShbQ0gzXSkoW09IXSlbQ0gyXVtPSF0=

>  <s_glide_docking_method>  (1) 
confgen

>  <s_i_glide_gridfile>  (1) 
gpcr_drd2_6luq_protein_autoprepared_prepared

>  <s_lp_Force_Field>  (1) 
S-OPLS

>  <s_lp_Variant>  (1) 
DiffSBDD_48_num_sample_100-2

>  <s_m_source_file>  (1) 
generated__ligand_DiffSBDD_2026-05-06_prepared.sdf

>  <GenAI_Model>  (1) 
DiffSBDD

>  <Protein>  (1) 
generic_title2

$$$$
DiffSBDD_55_num_sample_100
     RDKit          3D

  0  0  0  0  0  0  0  0  0  0999 V3000
M  V30 BEGIN CTAB
M  V30 COUNTS 51 54 0 0 1
M  V30 BEGIN ATOM
M  V30 1 O 8.056057 3.853444 -13.161041 0
M  V30 2 C 12.371909 9.102948 -3.475210 0
M  V30 3 C 9.846312 7.201279 -9.966742 0
M  V30 4 C 9.434944 8.459415 -7.304278 0
M  V30 5 C 8.725938 4.651991 -10.566142 0 CFG=2
M  V30 6 C 9.151790 5.531659 -11.729588 0 CFG=1
M  V30 7 S 11.491220 6.568843 -3.276733 0
M  V30 8 C 12.705084 7.797716 -2.765862 0
M  V30 9 C 11.834402 8.674564 -4.827784 0
M  V30 10 C 6.234008 5.015861 -14.061682 0
M  V30 11 N 9.034881 6.569305 -8.891434 0 CFG=2 CHG=1
M  V30 12 C 8.360602 5.242655 -13.032205 0 CFG=2
M  V30 13 C 9.160461 7.011657 -11.323939 0 CFG=2
M  V30 14 C 7.008400 5.957166 -13.173732 0
M  V30 15 C 6.690440 3.667383 -13.522816 0
M  V30 16 C 11.522803 6.434904 -6.048090 0
M  V30 17 C 9.465686 6.925379 -7.500557 0 CFG=1
M  V30 18 C 11.112567 7.317423 -4.878262 0 CFG=1
M  V30 19 C 7.447834 4.884805 -9.795721 0
M  V30 20 O 11.973847 9.375183 -5.825888 0
M  V30 21 O 9.834527 7.769422 -12.291665 0
M  V30 22 C 10.811817 6.263927 -7.181144 0
M  V30 23 C 8.782049 5.120154 -9.116631 0 CFG=1
M  V30 24 H 11.602515 9.661745 -2.941600 0
M  V30 25 H 13.249478 9.742567 -3.571095 0
M  V30 26 H 10.857595 6.800245 -9.977428 0
M  V30 27 H 9.948586 8.271831 -9.797233 0
M  V30 28 H 9.273001 8.753200 -6.271138 0
M  V30 29 H 10.348467 8.934131 -7.661431 0
M  V30 30 H 8.618546 8.917285 -7.854025 0
M  V30 31 H 9.024606 3.616151 -10.708261 0
M  V30 32 H 10.186817 5.240804 -11.925474 0
M  V30 33 H 12.725824 7.903689 -1.682566 0
M  V30 34 H 13.684461 7.441867 -3.091288 0
M  V30 35 H 6.536380 5.139878 -15.101582 0
M  V30 36 H 5.155971 5.158257 -13.994126 0
M  V30 37 H 8.980183 5.514439 -13.888470 0
M  V30 38 H 8.148010 7.404088 -11.257176 0
M  V30 39 H 6.496314 6.034985 -12.215993 0
M  V30 40 H 7.100634 6.961257 -13.587530 0
M  V30 41 H 6.568205 2.860340 -14.246436 0
M  V30 42 H 6.122298 3.409114 -12.627154 0
M  V30 43 H 12.457682 5.906830 -5.942932 0
M  V30 44 H 8.723835 6.486185 -6.831325 0
M  V30 45 H 10.036645 7.445757 -4.911441 0
M  V30 46 H 6.876391 4.007284 -9.492947 0
M  V30 47 H 6.846755 5.763752 -10.024791 0
M  V30 48 H 9.284018 7.856406 -13.055921 0
M  V30 49 H 11.204705 5.607858 -7.935139 0
M  V30 50 H 9.092133 4.443853 -8.322055 0
M  V30 51 H 8.113443 7.021225 -9.010680 0
M  V30 END ATOM
M  V30 BEGIN BOND
M  V30 1 1 6 5
M  V30 2 1 8 2
M  V30 3 1 8 7
M  V30 4 1 9 2
M  V30 5 1 11 3
M  V30 6 1 12 1
M  V30 7 1 12 6
M  V30 8 1 13 3
M  V30 9 1 13 6
M  V30 10 1 14 10
M  V30 11 1 14 12
M  V30 12 1 15 1
M  V30 13 1 15 10
M  V30 14 1 17 4
M  V30 15 1 17 11
M  V30 16 1 18 7
M  V30 17 1 18 9
M  V30 18 1 18 16
M  V30 19 1 19 5
M  V30 20 2 20 9
M  V30 21 1 21 13
M  V30 22 2 22 16
M  V30 23 1 22 17
M  V30 24 1 23 5
M  V30 25 1 23 11
M  V30 26 1 23 19
M  V30 27 1 24 2
M  V30 28 1 25 2
M  V30 29 1 26 3
M  V30 30 1 27 3
M  V30 31 1 28 4
M  V30 32 1 29 4
M  V30 33 1 30 4
M  V30 34 1 5 31 CFG=1
M  V30 35 1 6 32 CFG=3
M  V30 36 1 33 8
M  V30 37 1 34 8
M  V30 38 1 35 10
M  V30 39 1 36 10
M  V30 40 1 12 37 CFG=3
M  V30 41 1 13 38 CFG=1
M  V30 42 1 39 14
M  V30 43 1 40 14
M  V30 44 1 41 15
M  V30 45 1 42 15
M  V30 46 1 43 16
M  V30 47 1 17 44 CFG=1
M  V30 48 1 18 45 CFG=1
M  V30 49 1 46 19
M  V30 50 1 47 19
M  V30 51 1 48 21
M  V30 52 1 49 22
M  V30 53 1 23 50 CFG=1
M  V30 54 1 11 51 CFG=3
M  V30 END BOND
M  V30 END CTAB
M  END
>  <i_epik_Tot_Q>  (1) 
1

>  <i_epik_Tot_abs_Q>  (1) 
1

>  <i_i_glide_confnum>  (1) 
76

>  <i_i_glide_lignum>  (1) 
102

>  <i_i_glide_posenum>  (1) 
258

>  <i_i_glide_rotatable_bonds>  (1) 
5

>  <i_lp_mmshare_version>  (1) 
72125

>  <i_m_source_file_index>  (1) 
56

>  <i_f3d_flags>  (1) 
0

>  <num_sample>  (1) 
100

>  <b_lp_Chiralities_Consistent>  (1) 
1

>  <r_epik_Charging_Adjusted_Penalty>  (1) 
0.1887110856522376

>  <r_epik_Ionization_Penalty>  (1) 
0.094355642401006162

>  <r_epik_Ionization_Penalty_Charging>  (1) 
0.094355542826118813

>  <r_epik_Ionization_Penalty_Neutral>  (1) 
9.9574887353862298e-08

>  <r_epik_State_Penalty>  (1) 
0.094355542826118799

>  <r_glide_ring_energy>  (1) 
0.84612545809472284

>  <r_i_docking_score>  (1) 
-6.9731841104606653

>  <r_i_glide_ecoul>  (1) 
-6.8337419303105911

>  <r_i_glide_eff_state_penalty>  (1) 
0.094355542826118799

>  <r_i_glide_einternal>  (1) 
6.2470317226160308

>  <r_i_glide_emodel>  (1) 
-50.607990144719402

>  <r_i_glide_emodel_strain>  (1) 
2.7532284568938437

>  <r_i_glide_energy>  (1) 
-36.42081685647419

>  <r_i_glide_erotb>  (1) 
0.34663592295664913

>  <r_i_glide_esite>  (1) 
-0.10000000000000001

>  <r_i_glide_evdw>  (1) 
-29.587074926163595

>  <r_i_glide_gscore>  (1) 
-7.0675396532867838

>  <r_i_glide_gscore_strain>  (1) 
0

>  <r_i_glide_hbond>  (1) 
-0.17587456615758607

>  <r_i_glide_ligand_efficiency>  (1) 
-0.30318191784611587

>  <r_i_glide_ligand_efficiency_ln>  (1) 
-1.6861791472470848

>  <r_i_glide_ligand_efficiency_sa>  (1) 
-0.86220904505063911

>  <r_i_glide_lipo>  (1) 
-1.832567946686706

>  <r_i_glide_metal>  (1) 
-0

>  <r_i_glide_rewards>  (1) 
-2.8013180275443723

>  <r_lp_Energy>  (1) 
23.901119999999999

>  <r_lp_tautomer_probability>  (1) 
0.99995000000000001

>  <s_epik_cmdline>  (1) 
J2VwaWtfcHl0aG9uJywgJy1waHQnLCAnMS4wJywgJy1waCcsICc3LjQnLCAnLXRuJywgJzgnLCAnLW1hJywgJzUwMCcsICctaW1hZScsICc8aW5maWxlLm1hZT4nLCAnLW9tYWUnLCAnPG91dGZpbGUubWFlPic=

>  <s_epik_input>  (1) 
W0NIMl0xW0NIMl1bQ0gyXU9bQ0BASF0xW0NASF0yW0NASF0oW09IXSlbQ0gyXU4oW0NASF0oW0NASF0yMylbQ0gyXTMpW0NASF0oW0NIM10pL1tDSF09W0NIXVxbQ0BIXTRTW0NIMl1bQ0gyXUM0PU8=

>  <s_glide_docking_method>  (1) 
confgen

>  <s_i_glide_gridfile>  (1) 
gpcr_drd2_6luq_protein_autoprepared_prepared

>  <s_lp_Force_Field>  (1) 
S-OPLS

>  <s_lp_Variant>  (1) 
DiffSBDD_55_num_sample_100-3

>  <s_m_source_file>  (1) 
generated__ligand_DiffSBDD_2026-05-06_prepared.sdf

>  <GenAI_Model>  (1) 
DiffSBDD

>  <Protein>  (1) 
generic_title2

$$$$
DiffSBDD_76_num_sample_100
     RDKit          3D

  0  0  0  0  0  0  0  0  0  0999 V3000
M  V30 BEGIN CTAB
M  V30 COUNTS 78 81 0 0 1
M  V30 BEGIN ATOM
M  V30 1 C 6.281451 5.711017 -12.718958 0
M  V30 2 C 6.541257 5.818177 -17.812134 0
M  V30 3 C 9.413221 4.792153 -11.315044 0
M  V30 4 N 7.597562 5.099969 -13.011290 0 CFG=1 CHG=1
M  V30 5 C 6.695163 5.460716 -19.183494 0
M  V30 6 C 12.464889 7.732627 -2.654975 0
M  V30 7 C 11.835020 6.647793 -3.125180 0
M  V30 8 C 11.307134 7.712277 -6.874103 0 CFG=1
M  V30 9 C 6.258492 6.476305 -15.119312 0
M  V30 10 N 9.411850 6.657376 -8.407217 0 CFG=2 CHG=1
M  V30 11 C 9.230218 5.309319 -7.850943 0
M  V30 12 C 7.003988 5.327694 -15.450829 0
M  V30 13 C 11.241124 6.565196 -4.524692 0
M  V30 14 C 7.878209 3.833744 -17.195834 0
M  V30 15 C 5.697036 7.236957 -16.154246 0
M  V30 16 C 9.297544 8.969357 -7.834893 0
M  V30 17 C 6.066024 6.886360 -13.671663 0
M  V30 18 C 10.135067 6.717607 -9.688525 0
M  V30 19 N 5.831557 6.925004 -17.454162 0
M  V30 20 O 8.018642 4.949443 -8.461229 0
M  V30 21 O 7.162462 4.514698 -21.969180 0
M  V30 22 C 11.220962 7.916109 -5.311293 0 CFG=1
M  V30 23 C 7.440944 4.291283 -19.552495 0
M  V30 24 C 9.287494 6.270522 -10.895928 0
M  V30 25 N 12.681360 8.514624 -8.919795 0 CHG=1
M  V30 26 C 9.814418 7.651088 -7.388529 0 CFG=2
M  V30 27 O 6.118048 6.252111 -20.146408 0 CHG=-1
M  V30 28 C 8.111746 4.233876 -11.919428 0
M  V30 29 C 7.149532 4.983775 -16.820569 0
M  V30 30 C 7.631492 4.465141 -14.350912 0
M  V30 31 C 12.231189 8.796926 -7.544386 0
M  V30 32 C 12.607614 8.925212 -3.449858 0
M  V30 33 C 12.055752 9.028511 -4.666539 0
M  V30 34 C 7.619716 3.891135 -21.012790 0
M  V30 35 C 8.022736 3.492664 -18.544279 0
M  V30 36 C 8.432121 2.618798 -21.264153 0
M  V30 37 H 5.492157 4.965590 -12.834955 0
M  V30 38 H 6.232570 6.072686 -11.691087 0
M  V30 39 H 10.235103 4.679887 -12.022444 0
M  V30 40 H 9.676336 4.171527 -10.459268 0
M  V30 41 H 12.873149 7.713512 -1.655325 0
M  V30 42 H 11.743368 5.769247 -2.503504 0
M  V30 43 H 11.773589 6.744201 -7.057328 0
M  V30 44 H 9.105249 5.369294 -6.771304 0
M  V30 45 H 10.036714 4.625499 -8.111533 0
M  V30 46 H 10.229584 6.169558 -4.450546 0
M  V30 47 H 11.826150 5.812997 -5.055138 0
M  V30 48 H 8.329191 3.205326 -16.445226 0
M  V30 49 H 5.122247 8.124309 -15.932474 0
M  V30 50 H 9.516960 9.711820 -7.091654 0
M  V30 51 H 9.677391 9.309075 -8.795823 0
M  V30 52 H 8.234841 8.971129 -7.892208 0
M  V30 53 H 6.780718 7.677816 -13.446677 0
M  V30 54 H 5.071243 7.310573 -13.528492 0
M  V30 55 H 10.432165 7.734018 -9.921199 0
M  V30 56 H 11.034969 6.169316 -9.491586 0
M  V30 57 H 7.374929 4.744540 -7.796168 0
M  V30 58 H 10.252221 8.359031 -5.091747 0
M  V30 59 H 8.246488 6.518221 -10.692041 0
M  V30 60 H 9.548330 6.886519 -11.758656 0
M  V30 61 H 13.318527 9.249780 -9.213994 0
M  V30 62 H 13.172901 7.633455 -8.950743 0
M  V30 63 H 9.159369 7.420933 -6.547391 0
M  V30 64 H 8.283673 3.216183 -12.275878 0
M  V30 65 H 7.362605 4.150053 -11.130148 0
M  V30 66 H 8.676819 4.264033 -14.584954 0
M  V30 67 H 7.101002 3.511957 -14.320858 0
M  V30 68 H 11.769049 9.779273 -7.527549 0
M  V30 69 H 13.161932 8.923441 -6.993821 0
M  V30 70 H 13.166261 9.759115 -3.052127 0
M  V30 71 H 12.172477 9.943868 -5.226513 0
M  V30 72 H 8.584531 2.610755 -18.804091 0
M  V30 73 H 9.447620 2.724177 -20.882602 0
M  V30 74 H 7.957263 1.757912 -20.793270 0
M  V30 75 H 8.493786 2.422085 -22.335052 0
M  V30 76 H 11.898927 8.506805 -9.555115 0
M  V30 77 H 8.239100 5.877201 -13.069698 0
M  V30 78 H 8.461110 6.948701 -8.638210 0
M  V30 END ATOM
M  V30 BEGIN BOND
M  V30 1 1 4 1
M  V30 2 2 5 2
M  V30 3 2 7 6
M  V30 4 1 11 10
M  V30 5 2 12 9
M  V30 6 1 13 7
M  V30 7 1 15 9
M  V30 8 1 17 1
M  V30 9 1 17 9
M  V30 10 1 18 10
M  V30 11 1 19 2
M  V30 12 2 19 15
M  V30 13 1 20 11
M  V30 14 1 22 8
M  V30 15 1 22 13
M  V30 16 1 23 5
M  V30 17 1 24 3
M  V30 18 1 24 18
M  V30 19 1 26 8
M  V30 20 1 26 10
M  V30 21 1 26 16
M  V30 22 1 27 5
M  V30 23 1 28 3
M  V30 24 1 28 4
M  V30 25 1 29 2
M  V30 26 1 29 12
M  V30 27 2 29 14
M  V30 28 1 30 4
M  V30 29 1 30 12
M  V30 30 1 31 8
M  V30 31 1 31 25
M  V30 32 1 32 6
M  V30 33 1 33 22
M  V30 34 2 33 32
M  V30 35 2 34 21
M  V30 36 1 34 23
M  V30 37 1 35 14
M  V30 38 2 35 23
M  V30 39 1 36 34
M  V30 40 1 37 1
M  V30 41 1 38 1
M  V30 42 1 39 3
M  V30 43 1 40 3
M  V30 44 1 41 6
M  V30 45 1 42 7
M  V30 46 1 8 43 CFG=1
M  V30 47 1 44 11
M  V30 48 1 45 11
M  V30 49 1 46 13
M  V30 50 1 47 13
M  V30 51 1 48 14
M  V30 52 1 49 15
M  V30 53 1 50 16
M  V30 54 1 51 16
M  V30 55 1 52 16
M  V30 56 1 53 17
M  V30 57 1 54 17
M  V30 58 1 55 18
M  V30 59 1 56 18
M  V30 60 1 57 20
M  V30 61 1 22 58 CFG=3
M  V30 62 1 59 24
M  V30 63 1 60 24
M  V30 64 1 61 25
M  V30 65 1 62 25
M  V30 66 1 26 63 CFG=1
M  V30 67 1 64 28
M  V30 68 1 65 28
M  V30 69 1 66 30
M  V30 70 1 67 30
M  V30 71 1 68 31
M  V30 72 1 69 31
M  V30 73 1 70 32
M  V30 74 1 71 33
M  V30 75 1 72 35
M  V30 76 1 73 36
M  V30 77 1 74 36
M  V30 78 1 75 36
M  V30 79 1 76 25
M  V30 80 1 4 77 CFG=3
M  V30 81 1 10 78 CFG=3
M  V30 END BOND
M  V30 END CTAB
M  END
>  <i_epik_Tot_Q>  (1) 
2

>  <i_epik_Tot_abs_Q>  (1) 
4

>  <i_i_glide_confnum>  (1) 
764

>  <i_i_glide_lignum>  (1) 
156

>  <i_i_glide_posenum>  (1) 
179

>  <i_i_glide_rotatable_bonds>  (1) 
12

>  <i_lp_mmshare_version>  (1) 
72125

>  <i_m_source_file_index>  (1) 
77

>  <i_f3d_flags>  (1) 
0

>  <num_sample>  (1) 
100

>  <b_lp_Chiralities_Consistent>  (1) 
1

>  <r_epik_Charging_Adjusted_Penalty>  (1) 
2.7385366295040585

>  <r_epik_Ionization_Penalty>  (1) 
1.4403839023663505

>  <r_epik_Ionization_Penalty_Charging>  (1) 
1.4088334024277234

>  <r_epik_Ionization_Penalty_Neutral>  (1) 
0.03155049993862722

>  <r_epik_State_Penalty>  (1) 
1.3297032270763354

>  <r_glide_ring_energy>  (1) 
0.68305203791256597

>  <r_i_docking_score>  (1) 
-6.9716675318152852

>  <r_i_glide_ecoul>  (1) 
-6.8344772076529505

>  <r_i_glide_eff_state_penalty>  (1) 
1.3297032270763354

>  <r_i_glide_einternal>  (1) 
33.805174256144745

>  <r_i_glide_emodel>  (1) 
-61.164469307264355

>  <r_i_glide_emodel_strain>  (1) 
0.88656507096249015

>  <r_i_glide_energy>  (1) 
-43.574472030117285

>  <r_i_glide_erotb>  (1) 
0.46638165269772919

>  <r_i_glide_esite>  (1) 
-0.1143264061224105

>  <r_i_glide_evdw>  (1) 
-36.739994822464332

>  <r_i_glide_gscore>  (1) 
-8.3013707588916201

>  <r_i_glide_gscore_strain>  (1) 
0

>  <r_i_glide_hbond>  (1) 
-0.31239613823685752

>  <r_i_glide_ligand_efficiency>  (1) 
-0.19365743143931347

>  <r_i_glide_ligand_efficiency_ln>  (1) 
-1.5210295027522212

>  <r_i_glide_ligand_efficiency_sa>  (1) 
-0.63944274982041227

>  <r_i_glide_lipo>  (1) 
-4.0126068858680108

>  <r_i_glide_metal>  (1) 
-0

>  <r_i_glide_rewards>  (1) 
-1.4662516590909109

>  <r_lp_Energy>  (1) 
77.340654000000001

>  <r_lp_tautomer_probability>  (1) 
0.99995000000000001

>  <s_epik_Chemistry_Notes>  (1) 
This compound contains an acetal/aminal-like group ( X-CH(R)-Y where X, Y are N, S, or O) that may be acid/base labile, releasing an aldehyde.

>  <s_epik_cmdline>  (1) 
J2VwaWtfcHl0aG9uJywgJy1waHQnLCAnMS4wJywgJy1waCcsICc3LjQnLCAnLXRuJywgJzgnLCAnLW1hJywgJzUwMCcsICctaW1hZScsICc8aW5maWxlLm1hZT4nLCAnLW9tYWUnLCAnPG91dGZpbGUubWFlPic=

>  <s_epik_input>  (1) 
Tz1DKFtDSDNdKWMoYzFbT0hdKVtjSF1bY0hdYyhjMTIpYzNjKFtjSF1uMilbQ0gyXVtDSDJdTihbQ0gyXTMpW0NIMl1bQ0gyXVtDSDJdW0NIMl1OKFtDSDJdW09IXSlbQ0BIXShbQ0gzXSlbQ0BASF0oW0NIMl1bTkgyXSlbQ0BIXTRbQ0gyXVtDSF09W0NIXVtDSF09W0NIXTQ=

>  <s_glide_docking_method>  (1) 
confgen

>  <s_i_glide_gridfile>  (1) 
gpcr_drd2_6luq_protein_autoprepared_prepared

>  <s_lp_Force_Field>  (1) 
S-OPLS

>  <s_lp_Variant>  (1) 
DiffSBDD_76_num_sample_100-5

>  <s_m_source_file>  (1) 
generated__ligand_DiffSBDD_2026-05-06_prepared.sdf

>  <GenAI_Model>  (1) 
DiffSBDD

>  <Protein>  (1) 
generic_title2

$$$$
DiffSBDD_90_num_sample_100
     RDKit          3D

  0  0  0  0  0  0  0  0  0  0999 V3000
M  V30 BEGIN CTAB
M  V30 COUNTS 61 65 0 0 1
M  V30 BEGIN ATOM
M  V30 1 C 4.935239 8.123865 -19.984469 0
M  V30 2 C 6.035236 6.946548 -17.165022 0
M  V30 3 C 9.603708 7.437288 -6.512430 0
M  V30 4 S 4.634839 8.090563 -21.698705 0
M  V30 5 C 7.164677 4.888309 -16.422451 0
M  V30 6 C 6.573699 5.190035 -18.754255 0
M  V30 7 C 7.146959 4.396041 -17.756458 0
M  V30 8 C 9.260878 6.218504 -7.393402 0
M  V30 9 C 11.449560 8.738504 -7.757743 0
M  V30 10 C 11.469943 8.594527 -5.240991 0
M  V30 11 N 9.193271 6.451207 -8.864201 0 CFG=1 CHG=1
M  V30 12 C 10.407383 7.111402 -9.423861 0
M  V30 13 C 8.612294 3.967609 -11.712394 0
M  V30 14 C 7.205168 5.869400 -13.775328 0
M  V30 15 C 6.042445 6.414374 -18.459212 0
M  V30 16 C 8.915317 5.160732 -9.548933 0
M  V30 17 C 5.358750 6.498337 -21.826223 0
M  V30 18 C 6.474643 4.781138 -20.282100 0
M  V30 19 C 7.724039 4.111347 -15.395909 0
M  V30 20 C 10.556019 8.569301 -8.995307 0
M  V30 21 N 5.779558 6.104794 -20.611751 0 CHG=1
M  V30 22 C 5.510639 5.671299 -23.058609 0
M  V30 23 C 11.082447 7.869456 -6.542981 0 CFG=1
M  V30 24 C 6.634839 6.650427 -14.804953 0
M  V30 25 C 6.609364 6.169302 -16.124959 0
M  V30 26 C 8.364417 3.692108 -13.020417 0
M  V30 27 C 8.348067 5.272940 -10.982121 0
M  V30 28 C 7.754530 4.584406 -14.063884 0
M  V30 29 C 5.557474 6.975810 -19.596448 0
M  V30 30 H 4.641242 8.969301 -19.387971 0
M  V30 31 H 5.608134 7.918716 -16.964186 0
M  V30 32 H 9.417769 7.114658 -5.491667 0
M  V30 33 H 8.923391 8.271343 -6.691512 0
M  V30 34 H 7.563832 3.427792 -17.994014 0
M  V30 35 H 8.285296 5.847045 -7.073564 0
M  V30 36 H 9.972402 5.417879 -7.187965 0
M  V30 37 H 12.487567 8.539854 -8.029297 0
M  V30 38 H 11.434839 9.781547 -7.463652 0
M  V30 39 H 10.818858 9.450050 -5.057007 0
M  V30 40 H 11.402058 7.928572 -4.380243 0
M  V30 41 H 12.493191 8.969302 -5.279480 0
M  V30 42 H 11.309541 6.569301 -9.150215 0
M  V30 43 H 10.371548 7.102097 -10.510991 0
M  V30 44 H 9.053855 3.186533 -11.111878 0
M  V30 45 H 7.202012 6.256563 -12.784325 0
M  V30 46 H 8.195285 4.583328 -8.965550 0
M  V30 47 H 9.834839 4.575414 -9.538862 0
M  V30 48 H 7.437806 4.711629 -20.788298 0
M  V30 49 H 5.813058 3.935821 -20.472995 0
M  V30 50 H 8.137536 3.140159 -15.627235 0
M  V30 51 H 11.021694 9.126943 -9.808233 0
M  V30 52 H 9.572964 9.018380 -8.850734 0
M  V30 53 H 5.124944 4.669455 -22.867288 0
M  V30 54 H 4.937580 6.140548 -23.856832 0
M  V30 55 H 11.686871 6.962045 -6.591624 0
M  V30 56 H 6.215707 7.619228 -14.575166 0
M  V30 57 H 8.634840 2.706754 -13.370886 0
M  V30 58 H 8.829662 6.079284 -11.530162 0
M  V30 59 H 7.277454 5.464999 -10.899461 0
M  V30 60 H 6.566713 5.629722 -23.326524 0
M  V30 61 H 8.385326 7.054177 -9.045740 0
M  V30 END ATOM
M  V30 BEGIN BOND
M  V30 1 1 4 1
M  V30 2 2 7 5
M  V30 3 1 7 6
M  V30 4 1 8 3
M  V30 5 1 11 8
M  V30 6 1 12 11
M  V30 7 1 15 2
M  V30 8 2 15 6
M  V30 9 1 16 11
M  V30 10 1 17 4
M  V30 11 1 18 6
M  V30 12 1 19 5
M  V30 13 1 20 9
M  V30 14 1 20 12
M  V30 15 2 21 17
M  V30 16 1 21 18
M  V30 17 1 22 17
M  V30 18 1 23 3
M  V30 19 1 23 9
M  V30 20 1 23 10
M  V30 21 2 24 14
M  V30 22 2 25 2
M  V30 23 1 25 5
M  V30 24 1 25 24
M  V30 25 2 26 13
M  V30 26 1 27 13
M  V30 27 1 27 16
M  V30 28 1 28 14
M  V30 29 2 28 19
M  V30 30 1 28 26
M  V30 31 2 29 1
M  V30 32 1 29 15
M  V30 33 1 29 21
M  V30 34 1 30 1
M  V30 35 1 31 2
M  V30 36 1 32 3
M  V30 37 1 33 3
M  V30 38 1 34 7
M  V30 39 1 35 8
M  V30 40 1 36 8
M  V30 41 1 37 9
M  V30 42 1 38 9
M  V30 43 1 39 10
M  V30 44 1 40 10
M  V30 45 1 41 10
M  V30 46 1 42 12
M  V30 47 1 43 12
M  V30 48 1 44 13
M  V30 49 1 45 14
M  V30 50 1 46 16
M  V30 51 1 47 16
M  V30 52 1 48 18
M  V30 53 1 49 18
M  V30 54 1 50 19
M  V30 55 1 51 20
M  V30 56 1 52 20
M  V30 57 1 53 22
M  V30 58 1 54 22
M  V30 59 1 23 55 CFG=3
M  V30 60 1 56 24
M  V30 61 1 57 26
M  V30 62 1 58 27
M  V30 63 1 59 27
M  V30 64 1 60 22
M  V30 65 1 11 61 CFG=1
M  V30 END BOND
M  V30 END CTAB
M  END
>  <i_epik_Tot_Q>  (1) 
2

>  <i_epik_Tot_abs_Q>  (1) 
2

>  <i_i_glide_confnum>  (1) 
37

>  <i_i_glide_lignum>  (1) 
184

>  <i_i_glide_posenum>  (1) 
392

>  <i_i_glide_rotatable_bonds>  (1) 
4

>  <i_lp_mmshare_version>  (1) 
72125

>  <i_m_source_file_index>  (1) 
91

>  <i_f3d_flags>  (1) 
0

>  <num_sample>  (1) 
100

>  <b_lp_Chiralities_Consistent>  (1) 
1

>  <r_epik_Charging_Adjusted_Penalty>  (1) 
0.0021252633397680827

>  <r_epik_Ionization_Penalty>  (1) 
0.002125263340211697

>  <r_epik_Ionization_Penalty_Charging>  (1) 
0.0021252633397680827

>  <r_epik_Ionization_Penalty_Neutral>  (1) 
4.4361447992621368e-13

>  <r_epik_State_Penalty>  (1) 
-0

>  <r_glide_ring_energy>  (1) 
0

>  <r_i_docking_score>  (1) 
-6.9703270921490601

>  <r_i_glide_ecoul>  (1) 
-5.4613123739135618

>  <r_i_glide_eff_state_penalty>  (1) 
-0

>  <r_i_glide_einternal>  (1) 
8.4988650747529757

>  <r_i_glide_emodel>  (1) 
-55.711559422744784

>  <r_i_glide_emodel_strain>  (1) 
0.92817209551618873

>  <r_i_glide_energy>  (1) 
-39.913667374962131

>  <r_i_glide_erotb>  (1) 
0.47996519481946287

>  <r_i_glide_esite>  (1) 
-0.10000000000000001

>  <r_i_glide_evdw>  (1) 
-34.452355001048566

>  <r_i_glide_gscore>  (1) 
-6.9703270921490601

>  <r_i_glide_gscore_strain>  (1) 
0

>  <r_i_glide_hbond>  (1) 
-0.20000000000000001

>  <r_i_glide_ligand_efficiency>  (1) 
-0.24035610662582965

>  <r_i_glide_ligand_efficiency_ln>  (1) 
-1.5960281518576787

>  <r_i_glide_ligand_efficiency_sa>  (1) 
-0.73845011054287812

>  <r_i_glide_lipo>  (1) 
-2.9551622065949616

>  <r_i_glide_metal>  (1) 
-0

>  <r_i_glide_rewards>  (1) 
-1.6533154742340979

>  <r_lp_Energy>  (1) 
49.647815999999999

>  <r_lp_tautomer_probability>  (1) 
1

>  <s_epik_cmdline>  (1) 
J2VwaWtfcHl0aG9uJywgJy1waHQnLCAnMS4wJywgJy1waCcsICc3LjQnLCAnLXRuJywgJzgnLCAnLW1hJywgJzUwMCcsICctaW1hZScsICc8aW5maWxlLm1hZT4nLCAnLW9tYWUnLCAnPG91dGZpbGUubWFlPic=

>  <s_epik_input>  (1) 
W0NIMl09QzFTW0NIXT1DMk4xW0NIMl1jKFtjSF0zKWMyW2NIXWMoYzM0KVtjSF1bY0hdYyhbY0hdNCkvW0NIXT1bQ0hdXFtDSDJdW0NIMl1ONVtDSDJdW0NIMl1bQ0BIXShbQ0gzXSlbQ0gyXVtDSDJdW0NIMl01

>  <s_glide_docking_method>  (1) 
confgen

>  <s_i_glide_gridfile>  (1) 
gpcr_drd2_6luq_protein_autoprepared_prepared

>  <s_lp_Force_Field>  (1) 
S-OPLS

>  <s_lp_Variant>  (1) 
DiffSBDD_90_num_sample_100-4

>  <s_m_source_file>  (1) 
generated__ligand_DiffSBDD_2026-05-06_prepared.sdf

>  <GenAI_Model>  (1) 
DiffSBDD

>  <Protein>  (1) 
generic_title2

$$$$
DiffSBDD_29_num_sample_100
     RDKit          3D

  0  0  0  0  0  0  0  0  0  0999 V3000
M  V30 BEGIN CTAB
M  V30 COUNTS 73 77 0 0 1
M  V30 BEGIN ATOM
M  V30 1 F 13.104302 8.718820 -8.026222 0
M  V30 2 O 9.034827 3.280980 -12.793795 0
M  V30 3 N 6.282231 6.585621 -14.107976 0
M  V30 4 C 9.328979 3.128753 -16.935417 0
M  V30 5 N 11.567146 9.747912 -5.804183 0
M  V30 6 C 12.351480 9.169371 -3.517265 0
M  V30 7 C 8.757967 5.671466 -12.704002 0 CFG=1
M  V30 8 C 12.003884 6.837100 -2.839083 0
M  V30 9 C 11.769683 8.850674 -4.753764 0
M  V30 10 C 5.781900 6.582321 -12.800722 0
M  V30 11 C 7.341962 2.985780 -15.243904 0
M  V30 12 N 8.408788 6.169280 -10.337599 0
M  V30 13 C 9.388545 4.901523 -18.700334 0 CFG=2
M  V30 14 O 9.816273 5.210448 -20.009285 0
M  V30 15 O 7.834844 4.969256 -8.074727 0
M  V30 16 C 7.420052 5.769290 -16.145542 0
M  V30 17 C 7.298937 4.679981 -17.217168 0 CFG=2
M  V30 18 C 10.983329 8.969321 -6.984550 0 CFG=2
M  V30 19 C 10.347391 6.481483 -6.947946 0
M  V30 20 C 10.234844 5.925683 -12.361794 0
M  V30 21 C 6.370303 6.125335 -11.661139 0
M  V30 22 C 8.671234 4.412969 -13.575511 0 CFG=2
M  V30 23 N 9.863647 6.507525 -8.252952 0
M  V30 24 C 11.434851 6.569252 -4.109014 0
M  V30 25 C 10.856383 7.567576 -6.343137 0
M  V30 26 C 7.814651 3.313074 -16.700671 0 CFG=1
M  V30 27 C 12.470708 8.148575 -2.542369 0
M  V30 28 C 9.754984 3.451754 -18.368877 0
M  V30 29 F 11.370919 8.407924 -9.303801 0
M  V30 30 C 6.654829 5.382632 -14.869611 0 CFG=1
M  V30 31 C 7.871288 5.090253 -18.593383 0
M  V30 32 C 7.779824 5.545717 -11.504412 0 CFG=1
M  V30 33 C 7.292823 4.152046 -14.199203 0 CFG=1
M  V30 34 C 11.843046 9.082771 -8.259080 0
M  V30 35 C 11.349106 7.615442 -5.035452 0
M  V30 36 O 9.834833 4.204625 -9.413322 0
M  V30 37 S 8.945018 5.272631 -8.974458 0
M  V30 38 H 8.653217 3.344683 -11.931889 0
M  V30 39 H 9.905780 3.773712 -16.281480 0
M  V30 40 H 9.615558 2.104742 -16.691977 0
M  V30 41 H 12.231798 10.489834 -5.965882 0
M  V30 42 H 12.693285 10.168919 -3.308001 0
M  V30 43 H 8.525544 6.564861 -13.274881 0
M  V30 44 H 12.086349 6.049432 -2.104066 0
M  V30 45 H 4.811476 7.042590 -12.741766 0
M  V30 46 H 6.327095 2.601645 -15.323435 0
M  V30 47 H 7.907618 2.139454 -14.852927 0
M  V30 48 H 7.763201 6.914228 -9.984777 0
M  V30 49 H 9.896865 5.581547 -18.015266 0
M  V30 50 H 9.412664 4.606905 -20.613903 0
M  V30 51 H 8.464283 5.977255 -15.916650 0
M  V30 52 H 7.003567 6.692104 -16.549389 0
M  V30 53 H 6.234835 4.573960 -17.407738 0
M  V30 54 H 9.974257 9.339598 -7.162835 0
M  V30 55 H 10.268149 5.521755 -6.473074 0
M  V30 56 H 10.635279 5.037420 -11.891578 0
M  V30 57 H 10.401067 6.787788 -11.715848 0
M  V30 58 H 10.816548 6.106039 -13.265364 0
M  V30 59 H 9.409988 4.518199 -14.363830 0
M  V30 60 H 9.881729 7.397093 -8.749989 0
M  V30 61 H 11.083492 5.581774 -4.356367 0
M  V30 62 H 7.348452 2.559303 -17.337910 0
M  V30 63 H 12.910123 8.366056 -1.579235 0
M  V30 64 H 9.270562 2.764065 -19.063603 0
M  V30 65 H 10.829749 3.300579 -18.475342 0
M  V30 66 H 5.678013 5.033594 -15.204129 0
M  V30 67 H 7.603329 6.122378 -18.823043 0
M  V30 68 H 7.388667 4.481417 -19.359422 0
M  V30 69 H 7.612619 4.507110 -11.224933 0
M  V30 70 H 6.621397 3.833231 -13.400913 0
M  V30 71 H 11.834834 10.112935 -8.607312 0
M  V30 72 H 5.815261 6.219290 -10.737467 0
M  V30 73 H 5.850439 7.271152 -14.710879 0
M  V30 END ATOM
M  V30 BEGIN BOND
M  V30 1 1 9 5
M  V30 2 2 9 6
M  V30 3 1 10 3
M  V30 4 1 14 13
M  V30 5 1 17 16
M  V30 6 1 18 5
M  V30 7 1 20 7
M  V30 8 2 21 10
M  V30 9 1 22 2
M  V30 10 1 22 7
M  V30 11 1 23 19
M  V30 12 1 24 8
M  V30 13 1 25 18
M  V30 14 2 25 19
M  V30 15 1 26 4
M  V30 16 1 26 11
M  V30 17 1 26 17
M  V30 18 1 27 6
M  V30 19 2 27 8
M  V30 20 1 28 4
M  V30 21 1 28 13
M  V30 22 1 30 3
M  V30 23 1 30 16
M  V30 24 1 31 13
M  V30 25 1 31 17
M  V30 26 1 32 7
M  V30 27 1 32 12
M  V30 28 1 32 21
M  V30 29 1 33 11
M  V30 30 1 33 22
M  V30 31 1 33 30
M  V30 32 1 34 1
M  V30 33 1 34 18
M  V30 34 1 34 29
M  V30 35 1 35 9
M  V30 36 2 35 24
M  V30 37 1 35 25
M  V30 38 1 37 12
M  V30 39 2 37 15
M  V30 40 1 37 23
M  V30 41 2 37 36
M  V30 42 1 38 2
M  V30 43 1 39 4
M  V30 44 1 40 4
M  V30 45 1 41 5
M  V30 46 1 42 6
M  V30 47 1 7 43 CFG=3
M  V30 48 1 44 8
M  V30 49 1 45 10
M  V30 50 1 46 11
M  V30 51 1 47 11
M  V30 52 1 48 12
M  V30 53 1 13 49 CFG=1
M  V30 54 1 50 14
M  V30 55 1 51 16
M  V30 56 1 52 16
M  V30 57 1 17 53 CFG=3
M  V30 58 1 18 54 CFG=3
M  V30 59 1 55 19
M  V30 60 1 56 20
M  V30 61 1 57 20
M  V30 62 1 58 20
M  V30 63 1 22 59 CFG=3
M  V30 64 1 60 23
M  V30 65 1 61 24
M  V30 66 1 26 62 CFG=3
M  V30 67 1 63 27
M  V30 68 1 64 28
M  V30 69 1 65 28
M  V30 70 1 30 66 CFG=3
M  V30 71 1 67 31
M  V30 72 1 68 31
M  V30 73 1 32 69 CFG=1
M  V30 74 1 33 70 CFG=1
M  V30 75 1 71 34
M  V30 76 1 72 21
M  V30 77 1 73 3
M  V30 END BOND
M  V30 END CTAB
M  END
>  <i_epik_Tot_Q>  (1) 
0

>  <i_epik_Tot_abs_Q>  (1) 
0

>  <i_i_glide_confnum>  (1) 
3

>  <i_i_glide_lignum>  (1) 
53

>  <i_i_glide_posenum>  (1) 
298

>  <i_i_glide_rotatable_bonds>  (1) 
7

>  <i_lp_mmshare_version>  (1) 
72125

>  <i_m_source_file_index>  (1) 
30

>  <i_f3d_flags>  (1) 
0

>  <num_sample>  (1) 
100

>  <b_lp_Chiralities_Consistent>  (1) 
1

>  <r_epik_Charging_Adjusted_Penalty>  (1) 
1.5459132844328078e-07

>  <r_epik_Ionization_Penalty>  (1) 
1.5952634643945804

>  <r_epik_Ionization_Penalty_Charging>  (1) 
1.5459132844328078e-07

>  <r_epik_Ionization_Penalty_Neutral>  (1) 
1.595263309803252

>  <r_epik_State_Penalty>  (1) 
-0

>  <r_glide_ring_energy>  (1) 
0

>  <r_i_docking_score>  (1) 
-6.9479348224195938

>  <r_i_glide_ecoul>  (1) 
-6.4341467446275482

>  <r_i_glide_eff_state_penalty>  (1) 
-0

>  <r_i_glide_einternal>  (1) 
2.6009222932860876

>  <r_i_glide_emodel>  (1) 
-34.214737423911693

>  <r_i_glide_emodel_strain>  (1) 
2.2918118721981671

>  <r_i_glide_energy>  (1) 
-32.683454423325799

>  <r_i_glide_erotb>  (1) 
0.28486469644810641

>  <r_i_glide_esite>  (1) 
-0.16153027077714249

>  <r_i_glide_evdw>  (1) 
-26.249307678698248

>  <r_i_glide_gscore>  (1) 
-6.9479348224195938

>  <r_i_glide_gscore_strain>  (1) 
0

>  <r_i_glide_hbond>  (1) 
-0.098171142935826461

>  <r_i_glide_ligand_efficiency>  (1) 
-0.18778202222755658

>  <r_i_glide_ligand_efficiency_ln>  (1) 
-1.5068441802806158

>  <r_i_glide_ligand_efficiency_sa>  (1) 
-0.62573135781293021

>  <r_i_glide_lipo>  (1) 
-3.6519295159023666

>  <r_i_glide_metal>  (1) 
-0

>  <r_i_glide_rewards>  (1) 
-1.0435811936233199

>  <r_lp_Energy>  (1) 
49.148054999999999

>  <r_lp_tautomer_probability>  (1) 
1

>  <s_epik_Chemistry_Notes>  (1) 
This compound has an imine and may undergo hydrolysis.

>  <s_epik_cmdline>  (1) 
J2VwaWtfcHl0aG9uJywgJy1waHQnLCAnMS4wJywgJy1waCcsICc3LjQnLCAnLXRuJywgJzgnLCAnLW1hJywgJzUwMCcsICctaW1hZScsICc8aW5maWxlLm1hZT4nLCAnLW9tYWUnLCAnPG91dGZpbGUubWFlPic=

>  <s_epik_input>  (1) 
W2NIXTFbY0hdW2NIXVtjSF1jKGMxMilDKFxbQ0BASF0oW05IXTIpW0NIXShGKUYpPVtDSF1cW05IXVMoPU8pKD1PKVtOSF1bQ0BIXShbQ0BASF0oW0NIM10pW0NASF0zW09IXSlbQ0gyXVxbQ0hdPU5cW0NAQEhdKFtDSDJdNClbQ0BIXTNbQ0gyXVtDQEBIXShbQ0BASF00NSlbQ0gyXVtDSDJdW0NASF0oW09IXSlbQ0gyXTU=

>  <s_glide_docking_method>  (1) 
confgen

>  <s_i_glide_gridfile>  (1) 
gpcr_drd2_6luq_protein_autoprepared_prepared

>  <s_lp_Force_Field>  (1) 
S-OPLS

>  <s_lp_Variant>  (1) 
DiffSBDD_29_num_sample_100-3

>  <s_m_source_file>  (1) 
generated__ligand_DiffSBDD_2026-05-06_prepared.sdf

>  <GenAI_Model>  (1) 
DiffSBDD

>  <Protein>  (1) 
generic_title2

$$$$
DiffSBDD_68_num_sample_100
     RDKit          3D

  0  0  0  0  0  0  0  0  0  0999 V3000
M  V30 BEGIN CTAB
M  V30 COUNTS 88 93 0 0 1
M  V30 BEGIN ATOM
M  V30 1 C 8.313493 5.249527 -16.838851 0
M  V30 2 C 6.359545 3.417876 -13.352897 0
M  V30 3 C 12.481887 8.968404 -7.345917 0
M  V30 4 C 9.206301 6.396916 -10.987199 0
M  V30 5 C 5.814266 -0.787853 -20.212173 0
M  V30 6 C 8.223861 1.386670 -17.818404 0 CFG=1
M  V30 7 O 7.160374 4.063273 -18.581168 0
M  V30 8 C 7.826269 1.190138 -14.767602 0
M  V30 9 O 4.628903 -0.103452 -19.891580 0
M  V30 10 C 7.435973 4.835359 -10.061139 0
M  V30 11 C 8.744655 0.191606 -16.972693 0
M  V30 12 C 11.453428 8.874473 -6.300243 0
M  V30 13 C 10.919132 8.153991 -9.141210 0 CFG=2
M  V30 14 C 6.895643 1.009146 -18.577976 0 CFG=2
M  V30 15 C 8.267414 4.603970 -14.494824 0 CFG=1
M  V30 16 C 9.831954 8.080399 -8.129657 0 CFG=2
M  V30 17 O 5.854795 -2.063593 -19.613915 0
M  V30 18 C 10.096119 8.305960 -6.667867 0
M  V30 19 C 8.666477 3.344670 -22.778045 0
M  V30 20 C 7.274946 2.394417 -15.565840 0 CFG=1
M  V30 21 C 7.127667 5.710450 -12.474970 0 CFG=2
M  V30 22 C 5.940715 4.733879 -12.674948 0
M  V30 23 O 5.956519 0.477068 -17.667325 0
M  V30 24 O 7.625675 0.632385 -20.983438 0
M  V30 25 C 10.323050 6.810121 -8.792601 0 CFG=1
M  V30 26 C 7.798471 3.990312 -17.533315 0
M  V30 27 C 7.073743 1.830841 -21.528627 0 CFG=1
M  V30 28 C 7.825057 5.924330 -13.824706 0
M  V30 29 C 8.029166 -0.066135 -15.627311 0
M  V30 30 C 7.037562 3.683403 -14.712666 0 CFG=1
M  V30 31 C 7.927173 2.225295 -22.720519 0
M  V30 32 O 5.721855 1.690528 -21.934964 0
M  V30 33 C 12.217767 8.624605 -8.628201 0
M  V30 34 C 8.115022 2.629328 -16.860035 0 CFG=2
M  V30 35 C 9.357384 1.693053 -18.836369 0
M  V30 36 O 5.217428 3.000214 -22.343983 0
M  V30 37 N 9.320339 6.146516 -9.568989 0
M  V30 38 S 11.834811 9.369236 -4.760389 0
M  V30 39 C 8.440349 5.317603 -9.064808 0
M  V30 40 O 9.030351 4.927837 -15.654127 0
M  V30 41 O 8.405133 4.969197 -7.891624 0
M  V30 42 C 8.135970 5.294042 -11.372045 0 CFG=1
M  V30 43 C 7.060013 0.041577 -19.803588 0 CFG=2
M  V30 44 H 8.990150 5.756105 -17.526422 0
M  V30 45 H 7.486344 5.929436 -16.633696 0
M  V30 46 H 7.034017 2.872664 -12.692154 0
M  V30 47 H 5.481405 2.785714 -13.491357 0
M  V30 48 H 13.472162 9.315139 -7.083562 0
M  V30 49 H 10.154042 6.273359 -11.514218 0
M  V30 50 H 8.820374 7.404605 -11.152058 0
M  V30 51 H 5.827364 -0.959675 -21.289200 0
M  V30 52 H 7.143421 0.924259 -13.962424 0
M  V30 53 H 8.756545 1.443698 -14.274743 0
M  V30 54 H 4.232753 0.160990 -20.718488 0
M  V30 55 H 6.508441 5.379943 -9.892009 0
M  V30 56 H 7.230490 3.771338 -10.005466 0
M  V30 57 H 8.748550 -0.731062 -17.550081 0
M  V30 58 H 9.791045 0.382350 -16.748816 0
M  V30 59 H 10.659905 8.597931 -10.099254 0
M  V30 60 H 6.373270 1.885506 -18.936991 0
M  V30 61 H 8.975037 4.092996 -13.844938 0
M  V30 62 H 8.885104 8.496590 -8.457172 0
M  V30 63 H 5.170384 -2.593034 -19.992362 0
M  V30 64 H 9.960807 7.361187 -6.139568 0
M  V30 65 H 9.256531 3.577859 -23.652374 0
M  V30 66 H 8.690525 4.040409 -21.952002 0
M  V30 67 H 6.277294 2.095081 -15.876925 0
M  V30 68 H 6.701039 6.665390 -12.162136 0
M  V30 69 H 5.430638 4.522143 -11.736601 0
M  V30 70 H 5.190802 5.220602 -13.300631 0
M  V30 71 H 5.227579 0.154566 -18.189475 0
M  V30 72 H 10.952848 6.158514 -8.189260 0
M  V30 73 H 7.137499 2.633807 -20.796731 0
M  V30 74 H 8.677401 6.568806 -13.668214 0
M  V30 75 H 7.155493 6.471526 -14.487978 0
M  V30 76 H 7.074080 -0.562767 -15.783809 0
M  V30 77 H 8.613403 -0.788385 -15.054915 0
M  V30 78 H 6.308078 4.273433 -15.268855 0
M  V30 79 H 7.921962 1.547035 -23.561006 0
M  V30 80 H 13.010828 8.707344 -9.356491 0
M  V30 81 H 9.133659 2.758614 -16.495490 0
M  V30 82 H 10.260321 2.044722 -18.336781 0
M  V30 83 H 9.652772 0.809549 -19.401006 0
M  V30 84 H 9.076744 2.458800 -19.556791 0
M  V30 85 H 5.463834 3.008452 -23.257558 0
M  V30 86 H 9.321898 8.968948 -6.287906 0
M  V30 87 H 8.693607 4.420597 -11.708709 0
M  V30 88 H 7.816510 -0.695020 -19.537401 0
M  V30 END ATOM
M  V30 BEGIN BOND
M  V30 1 1 9 5
M  V30 2 1 11 6
M  V30 3 1 12 3
M  V30 4 1 14 6
M  V30 5 1 16 13
M  V30 6 1 17 5
M  V30 7 1 18 12
M  V30 8 1 18 16
M  V30 9 1 20 8
M  V30 10 1 22 2
M  V30 11 1 22 21
M  V30 12 1 23 14
M  V30 13 1 25 13
M  V30 14 1 25 16
M  V30 15 1 26 1
M  V30 16 2 26 7
M  V30 17 1 27 24
M  V30 18 1 28 15
M  V30 19 1 28 21
M  V30 20 1 29 8
M  V30 21 1 29 11
M  V30 22 1 30 2
M  V30 23 1 30 15
M  V30 24 1 30 20
M  V30 25 2 31 19
M  V30 26 1 31 27
M  V30 27 1 32 27
M  V30 28 2 33 3
M  V30 29 1 33 13
M  V30 30 1 34 6
M  V30 31 1 34 20
M  V30 32 1 34 26
M  V30 33 1 6 35 CFG=3
M  V30 34 1 36 32
M  V30 35 1 37 4
M  V30 36 1 37 25
M  V30 37 2 38 12
M  V30 38 1 39 10
M  V30 39 1 39 37
M  V30 40 1 40 1
M  V30 41 1 40 15
M  V30 42 2 41 39
M  V30 43 1 42 4
M  V30 44 1 42 10
M  V30 45 1 42 21
M  V30 46 1 43 5
M  V30 47 1 43 14
M  V30 48 1 43 24
M  V30 49 1 44 1
M  V30 50 1 45 1
M  V30 51 1 46 2
M  V30 52 1 47 2
M  V30 53 1 48 3
M  V30 54 1 49 4
M  V30 55 1 50 4
M  V30 56 1 51 5
M  V30 57 1 52 8
M  V30 58 1 53 8
M  V30 59 1 54 9
M  V30 60 1 55 10
M  V30 61 1 56 10
M  V30 62 1 57 11
M  V30 63 1 58 11
M  V30 64 1 13 59 CFG=3
M  V30 65 1 14 60 CFG=3
M  V30 66 1 15 61 CFG=1
M  V30 67 1 16 62 CFG=3
M  V30 68 1 63 17
M  V30 69 1 64 18
M  V30 70 1 65 19
M  V30 71 1 66 19
M  V30 72 1 20 67 CFG=3
M  V30 73 1 21 68 CFG=1
M  V30 74 1 69 22
M  V30 75 1 70 22
M  V30 76 1 71 23
M  V30 77 1 25 72 CFG=1
M  V30 78 1 27 73 CFG=1
M  V30 79 1 74 28
M  V30 80 1 75 28
M  V30 81 1 76 29
M  V30 82 1 77 29
M  V30 83 1 30 78 CFG=3
M  V30 84 1 79 31
M  V30 85 1 80 33
M  V30 86 1 34 81 CFG=1
M  V30 87 1 82 35
M  V30 88 1 83 35
M  V30 89 1 84 35
M  V30 90 1 85 36
M  V30 91 1 86 18
M  V30 92 1 42 87 CFG=3
M  V30 93 1 43 88 CFG=1
M  V30 END BOND
M  V30 END CTAB
M  END
>  <i_epik_Tot_Q>  (1) 
0

>  <i_epik_Tot_abs_Q>  (1) 
0

>  <i_i_glide_confnum>  (1) 
1639

>  <i_i_glide_lignum>  (1) 
138

>  <i_i_glide_posenum>  (1) 
332

>  <i_i_glide_rotatable_bonds>  (1) 
13

>  <i_lp_mmshare_version>  (1) 
72125

>  <i_m_source_file_index>  (1) 
69

>  <i_f3d_flags>  (1) 
0

>  <num_sample>  (1) 
100

>  <b_lp_Chiralities_Consistent>  (1) 
1

>  <r_epik_Charging_Adjusted_Penalty>  (1) 
0

>  <r_epik_Ionization_Penalty>  (1) 
0.00032218278010154739

>  <r_epik_Ionization_Penalty_Charging>  (1) 
0

>  <r_epik_Ionization_Penalty_Neutral>  (1) 
0.00032218278010154739

>  <r_epik_State_Penalty>  (1) 
-0

>  <r_glide_ring_energy>  (1) 
0

>  <r_i_docking_score>  (1) 
-6.9267910755124191

>  <r_i_glide_ecoul>  (1) 
-4.7857821828828229

>  <r_i_glide_eff_state_penalty>  (1) 
-0

>  <r_i_glide_einternal>  (1) 
19.976317619488075

>  <r_i_glide_emodel>  (1) 
-58.792747918383853

>  <r_i_glide_emodel_strain>  (1) 
1.3045995246471875

>  <r_i_glide_energy>  (1) 
-52.534035549799412

>  <r_i_glide_erotb>  (1) 
0.36271052330308029

>  <r_i_glide_esite>  (1) 
-0.20327563802600276

>  <r_i_glide_evdw>  (1) 
-47.748253366916593

>  <r_i_glide_gscore>  (1) 
-6.9267910755124191

>  <r_i_glide_gscore_strain>  (1) 
0

>  <r_i_glide_hbond>  (1) 
-0.32000000000000001

>  <r_i_glide_ligand_efficiency>  (1) 
-0.16108816454680044

>  <r_i_glide_ligand_efficiency_ln>  (1) 
-1.4548414070395352

>  <r_i_glide_ligand_efficiency_sa>  (1) 
-0.5643559632245182

>  <r_i_glide_lipo>  (1) 
-1.8939951662596146

>  <r_i_glide_metal>  (1) 
-0

>  <r_i_glide_rewards>  (1) 
-1.7669507987516297

>  <r_lp_Energy>  (1) 
42.877758

>  <r_lp_tautomer_probability>  (1) 
1

>  <s_epik_Chemistry_Notes>  (1) 
This compound contains an acetal/aminal-like group ( X-CH(R)-Y where X, Y are N, S, or O) that may be acid/base labile, releasing an aldehyde.

>  <s_epik_cmdline>  (1) 
J2VwaWtfcHl0aG9uJywgJy1waHQnLCAnMS4wJywgJy1waCcsICc3LjQnLCAnLXRuJywgJzgnLCAnLW1hJywgJzUwMCcsICctaW1hZScsICc8aW5maWxlLm1hZT4nLCAnLW9tYWUnLCAnPG91dGZpbGUubWFlPic=

>  <s_epik_input>  (1) 
W0NIMl09W0NIXVtDQEBIXShPW09IXSlPW0NASF0oW0NIXShbT0hdKVtPSF0pW0NAQEhdKFtPSF0pW0NAXShbQ0gzXSkoW0NIMl1bQ0gyXVtDSDJdMSlbQ0BASF0oQyg9TylbQ0gyXU8yKVtDQEBIXTFbQ0BASF0oW0NAQEhdMjMpW0NIMl1bQ0gyXVtDQEhdKFtDSDJdMylbQ0BIXShbQ0gyXUM0PU8pW0NIMl1ONFtDQEBIXTVbQ0BIXShbQ0BIXTU2KVtDSF09QyhbU0hdKVtDSF09W0NIXTY=

>  <s_glide_docking_method>  (1) 
confgen

>  <s_i_glide_gridfile>  (1) 
gpcr_drd2_6luq_protein_autoprepared_prepared

>  <s_lp_Force_Field>  (1) 
S-OPLS

>  <s_lp_Variant>  (1) 
DiffSBDD_68_num_sample_100-2

>  <s_m_source_file>  (1) 
generated__ligand_DiffSBDD_2026-05-06_prepared.sdf

>  <GenAI_Model>  (1) 
DiffSBDD

>  <Protein>  (1) 
generic_title2

$$$$
DiffSBDD_19_num_sample_100
     RDKit          3D

  0  0  0  0  0  0  0  0  0  0999 V3000
M  V30 BEGIN CTAB
M  V30 COUNTS 54 57 0 0 1
M  V30 BEGIN ATOM
M  V30 1 C 9.013301 6.098755 -10.730616 0
M  V30 2 C 11.834864 9.081140 -9.171605 0
M  V30 3 C 7.740947 4.471653 -14.845200 0 CFG=1
M  V30 4 N 11.108118 8.015678 -7.004449 0
M  V30 5 C 7.497711 5.644586 -12.653566 0 CFG=1
M  V30 6 C 5.957086 4.169347 -11.237932 0
M  V30 7 C 8.319927 5.590864 -13.955707 0 CFG=1
M  V30 8 O 10.820484 6.247625 -5.409268 0
M  V30 9 C 7.086756 4.216061 -12.274526 0 CFG=1
M  V30 10 C 9.819996 5.369291 -13.746995 0
M  V30 11 S 6.634861 3.438220 -13.837590 0
M  V30 12 C 7.034878 5.038090 -16.081211 0
M  V30 13 C 11.742843 6.440653 -3.196186 0
M  V30 14 C 12.351416 7.222644 -2.205954 0
M  V30 15 C 10.744570 8.363945 -8.366450 0 CFG=2
M  V30 16 C 10.161002 6.072604 -7.744622 0
M  V30 17 C 11.434871 8.927078 -6.053190 0
M  V30 18 N 8.084087 6.503029 -11.614925 0
M  V30 19 O 9.434828 4.950888 -10.652748 0
M  V30 20 C 11.434810 7.001941 -4.446008 0
M  V30 21 C 12.634877 8.574760 -2.452901 0
M  V30 22 C 12.331582 9.139037 -3.704417 0
M  V30 23 C 10.475514 6.969306 -8.958323 0 CFG=1
M  V30 24 N 9.434855 7.102206 -9.955862 0
M  V30 25 C 11.160441 6.601723 -6.711024 0 CFG=1
M  V30 26 C 11.741889 8.347709 -4.706048 0
M  V30 27 O 11.489946 10.140651 -6.253022 0
M  V30 28 H 11.654942 8.981259 -10.242232 0
M  V30 29 H 11.834831 10.148350 -8.959934 0
M  V30 30 H 12.827568 8.679195 -8.965691 0
M  V30 31 H 8.541762 3.818844 -15.194672 0
M  V30 32 H 6.569173 6.155476 -12.914722 0
M  V30 33 H 6.232908 4.708988 -10.331035 0
M  V30 34 H 5.038900 4.611806 -11.624435 0
M  V30 35 H 5.746790 3.142035 -10.946336 0
M  V30 36 H 8.215551 6.553870 -14.457029 0
M  V30 37 H 7.935029 3.635935 -11.919561 0
M  V30 38 H 9.989393 4.436862 -13.209587 0
M  V30 39 H 10.341513 5.306142 -14.701961 0
M  V30 40 H 10.295055 6.169245 -13.183300 0
M  V30 41 H 7.705388 5.673874 -16.659648 0
M  V30 42 H 6.697478 4.240995 -16.742081 0
M  V30 43 H 6.167380 5.635829 -15.800201 0
M  V30 44 H 11.513772 5.408010 -2.997157 0
M  V30 45 H 12.600926 6.784555 -1.254622 0
M  V30 46 H 9.828037 8.957858 -8.338445 0
M  V30 47 H 10.312014 5.010299 -7.935543 0
M  V30 48 H 9.143507 6.236118 -7.382765 0
M  V30 49 H 7.778469 7.464442 -11.584075 0
M  V30 50 H 13.093780 9.177795 -1.685493 0
M  V30 51 H 12.562216 10.169301 -3.899350 0
M  V30 52 H 11.382448 6.598312 -9.434568 0
M  V30 53 H 9.000369 8.008560 -10.061447 0
M  V30 54 H 12.174345 6.258216 -6.920855 0
M  V30 END ATOM
M  V30 BEGIN BOND
M  V30 1 1 7 3
M  V30 2 1 7 5
M  V30 3 1 9 5
M  V30 4 1 9 6
M  V30 5 1 10 7
M  V30 6 1 11 3
M  V30 7 1 11 9
M  V30 8 1 12 3
M  V30 9 1 14 13
M  V30 10 1 15 2
M  V30 11 1 15 4
M  V30 12 1 17 4
M  V30 13 1 18 1
M  V30 14 1 18 5
M  V30 15 2 19 1
M  V30 16 1 20 8
M  V30 17 2 20 13
M  V30 18 2 21 14
M  V30 19 1 22 21
M  V30 20 1 23 15
M  V30 21 1 23 16
M  V30 22 1 24 1
M  V30 23 1 24 23
M  V30 24 1 25 4
M  V30 25 1 25 8
M  V30 26 1 25 16
M  V30 27 1 26 17
M  V30 28 1 26 20
M  V30 29 2 26 22
M  V30 30 2 27 17
M  V30 31 1 28 2
M  V30 32 1 29 2
M  V30 33 1 30 2
M  V30 34 1 3 31 CFG=3
M  V30 35 1 5 32 CFG=3
M  V30 36 1 33 6
M  V30 37 1 34 6
M  V30 38 1 35 6
M  V30 39 1 7 36 CFG=3
M  V30 40 1 9 37 CFG=1
M  V30 41 1 38 10
M  V30 42 1 39 10
M  V30 43 1 40 10
M  V30 44 1 41 12
M  V30 45 1 42 12
M  V30 46 1 43 12
M  V30 47 1 44 13
M  V30 48 1 45 14
M  V30 49 1 15 46 CFG=1
M  V30 50 1 47 16
M  V30 51 1 48 16
M  V30 52 1 49 18
M  V30 53 1 50 21
M  V30 54 1 51 22
M  V30 55 1 23 52 CFG=3
M  V30 56 1 53 24
M  V30 57 1 25 54 CFG=3
M  V30 END BOND
M  V30 END CTAB
M  END
>  <i_epik_Tot_Q>  (1) 
0

>  <i_epik_Tot_abs_Q>  (1) 
0

>  <i_i_glide_confnum>  (1) 
6

>  <i_i_glide_lignum>  (1) 
31

>  <i_i_glide_posenum>  (1) 
374

>  <i_i_glide_rotatable_bonds>  (1) 
4

>  <i_lp_mmshare_version>  (1) 
72125

>  <i_m_source_file_index>  (1) 
20

>  <i_f3d_flags>  (1) 
0

>  <num_sample>  (1) 
100

>  <b_lp_Chiralities_Consistent>  (1) 
1

>  <r_epik_Charging_Adjusted_Penalty>  (1) 
0

>  <r_epik_Ionization_Penalty>  (1) 
1.7464855434589993e-05

>  <r_epik_Ionization_Penalty_Charging>  (1) 
0

>  <r_epik_Ionization_Penalty_Neutral>  (1) 
1.7464855434589993e-05

>  <r_epik_State_Penalty>  (1) 
-0

>  <r_glide_ring_energy>  (1) 
1.726873637521267

>  <r_i_docking_score>  (1) 
-6.9205466510727742

>  <r_i_glide_ecoul>  (1) 
-2.0247157821024531

>  <r_i_glide_eff_state_penalty>  (1) 
-0

>  <r_i_glide_einternal>  (1) 
12.364507732141229

>  <r_i_glide_emodel>  (1) 
-47.972409278179875

>  <r_i_glide_emodel_strain>  (1) 
0.28991266143584937

>  <r_i_glide_energy>  (1) 
-38.834761651625072

>  <r_i_glide_erotb>  (1) 
0.51395476033457277

>  <r_i_glide_esite>  (1) 
-0.26290293278535848

>  <r_i_glide_evdw>  (1) 
-36.810045869522618

>  <r_i_glide_gscore>  (1) 
-6.9205466510727742

>  <r_i_glide_gscore_strain>  (1) 
0

>  <r_i_glide_hbond>  (1) 
-0.025121791698231987

>  <r_i_glide_ligand_efficiency>  (1) 
-0.25631654263232495

>  <r_i_glide_ligand_efficiency_ln>  (1) 
-1.6109891662412583

>  <r_i_glide_ligand_efficiency_sa>  (1) 
-0.76894962789697507

>  <r_i_glide_lipo>  (1) 
-2.4582147036583062

>  <r_i_glide_metal>  (1) 
-0

>  <r_i_glide_rewards>  (1) 
-2.5440523224739517

>  <r_lp_Energy>  (1) 
24.337422

>  <r_lp_tautomer_probability>  (1) 
1

>  <s_epik_Chemistry_Notes>  (1) 
This compound contains an acetal/aminal-like group ( X-CH(R)-Y where X, Y are N, S, or O) that may be acid/base labile, releasing an aldehyde.

>  <s_epik_cmdline>  (1) 
J2VwaWtfcHl0aG9uJywgJy1waHQnLCAnMS4wJywgJy1waCcsICc3LjQnLCAnLXRuJywgJzgnLCAnLW1hJywgJzUwMCcsICctaW1hZScsICc8aW5maWxlLm1hZT4nLCAnLW9tYWUnLCAnPG91dGZpbGUubWFlPic=

>  <s_epik_input>  (1) 
W0NIM11bQ0BIXTFbQ0BIXShbQ0gzXSlbQ0BASF0oW0NASF0oUzEpW0NIM10pW05IXUMoPU8pW05IXVtDQEBIXShbQ0BASF0yW0NIM10pW0NIMl1bQ0BASF0oTjIzKU9jNGMoQzM9TylbY0hdW2NIXVtjSF1bY0hdNA==

>  <s_glide_docking_method>  (1) 
confgen

>  <s_i_glide_gridfile>  (1) 
gpcr_drd2_6luq_protein_autoprepared_prepared

>  <s_lp_Force_Field>  (1) 
S-OPLS

>  <s_lp_Variant>  (1) 
DiffSBDD_19_num_sample_100-1

>  <s_m_source_file>  (1) 
generated__ligand_DiffSBDD_2026-05-06_prepared.sdf

>  <GenAI_Model>  (1) 
DiffSBDD

>  <Protein>  (1) 
generic_title2

$$$$
DiffSBDD_31_num_sample_100
     RDKit          3D

  0  0  0  0  0  0  0  0  0  0999 V3000
M  V30 BEGIN CTAB
M  V30 COUNTS 50 53 0 0 1
M  V30 BEGIN ATOM
M  V30 1 C 9.232392 5.194509 -9.607432 0
M  V30 2 C 10.226852 7.259266 -8.509617 0
M  V30 3 C 10.952887 8.013651 -6.330709 0
M  V30 4 O 12.955935 8.554802 -1.091665 0
M  V30 5 C 6.401859 6.997291 -14.427536 0
M  V30 6 C 5.903831 6.239530 -13.185979 0 CFG=1
M  V30 7 C 11.607022 6.982575 -4.139484 0
M  V30 8 N 9.820157 6.539903 -9.639645 0
M  V30 9 C 11.434836 8.132982 -4.951906 0
M  V30 10 O 12.318074 6.032197 -2.049622 0
M  V30 11 S 10.207214 6.536590 -6.905933 0
M  V30 12 C 12.123399 7.124372 -2.830455 0
M  V30 13 C 7.899231 5.106172 -10.355262 0
M  V30 14 C 6.843061 5.104006 -12.696785 0 CFG=1
M  V30 15 C 7.746498 4.960461 -15.089027 0 CFG=2
M  V30 16 N 11.034856 8.969299 -7.262303 0
M  V30 17 Cl 8.090593 3.830474 -16.422345 0
M  V30 18 C 9.967876 6.997031 -11.030255 0
M  V30 19 C 7.186064 4.180689 -13.888490 0
M  V30 20 N 10.687266 8.515143 -8.531858 0
M  V30 21 C 12.439981 8.401394 -2.334806 0
M  V30 22 C 11.750619 9.404164 -4.430013 0
M  V30 23 C 12.234817 9.523312 -3.114668 0
M  V30 24 C 8.106061 5.447101 -11.834732 0
M  V30 25 C 6.741546 6.022456 -15.562039 0
M  V30 26 C 8.696717 6.870772 -11.891741 0
M  V30 27 Cl 5.434843 7.369203 -11.891670 0
M  V30 28 H 9.922161 4.474903 -10.040529 0
M  V30 29 H 9.062829 4.863835 -8.584777 0
M  V30 30 H 13.269523 9.441300 -0.950977 0
M  V30 31 H 7.265085 7.614975 -14.190334 0
M  V30 32 H 5.630062 7.689840 -14.765777 0
M  V30 33 H 4.975116 5.756984 -13.486039 0
M  V30 34 H 11.369784 6.001205 -4.522327 0
M  V30 35 H 11.879422 5.249072 -2.351836 0
M  V30 36 H 7.495230 4.105335 -10.245729 0
M  V30 37 H 7.163103 5.769184 -9.903673 0
M  V30 38 H 6.211633 4.488242 -12.054961 0
M  V30 39 H 8.694073 5.429410 -14.821572 0
M  V30 40 H 10.293847 8.037079 -11.043730 0
M  V30 41 H 10.770680 6.429597 -11.498283 0
M  V30 42 H 7.879011 3.395207 -13.584008 0
M  V30 43 H 6.280407 3.660358 -14.203013 0
M  V30 44 H 11.614527 10.288817 -5.035681 0
M  V30 45 H 12.461981 10.486188 -2.691671 0
M  V30 46 H 8.903265 4.784588 -12.175282 0
M  V30 47 H 7.130535 6.569141 -16.419681 0
M  V30 48 H 5.829493 5.533743 -15.906138 0
M  V30 49 H 8.951048 7.129982 -12.915360 0
M  V30 50 H 7.988494 7.615027 -11.537188 0
M  V30 END ATOM
M  V30 BEGIN BOND
M  V30 1 1 6 5
M  V30 2 1 8 1
M  V30 3 1 8 2
M  V30 4 1 9 3
M  V30 5 2 9 7
M  V30 6 1 11 2
M  V30 7 1 11 3
M  V30 8 1 12 7
M  V30 9 1 12 10
M  V30 10 1 13 1
M  V30 11 1 14 6
M  V30 12 2 16 3
M  V30 13 1 17 15
M  V30 14 1 18 8
M  V30 15 1 19 14
M  V30 16 1 19 15
M  V30 17 2 20 2
M  V30 18 1 20 16
M  V30 19 1 21 4
M  V30 20 2 21 12
M  V30 21 1 22 9
M  V30 22 1 23 21
M  V30 23 2 23 22
M  V30 24 1 24 13
M  V30 25 1 24 14
M  V30 26 1 25 5
M  V30 27 1 25 15
M  V30 28 1 26 18
M  V30 29 1 26 24
M  V30 30 1 27 6
M  V30 31 1 28 1
M  V30 32 1 29 1
M  V30 33 1 30 4
M  V30 34 1 31 5
M  V30 35 1 32 5
M  V30 36 1 6 33 CFG=3
M  V30 37 1 34 7
M  V30 38 1 35 10
M  V30 39 1 36 13
M  V30 40 1 37 13
M  V30 41 1 14 38 CFG=1
M  V30 42 1 15 39 CFG=1
M  V30 43 1 40 18
M  V30 44 1 41 18
M  V30 45 1 42 19
M  V30 46 1 43 19
M  V30 47 1 44 22
M  V30 48 1 45 23
M  V30 49 1 46 24
M  V30 50 1 47 25
M  V30 51 1 48 25
M  V30 52 1 49 26
M  V30 53 1 50 26
M  V30 END BOND
M  V30 END CTAB
M  END
>  <i_epik_Tot_Q>  (1) 
0

>  <i_epik_Tot_abs_Q>  (1) 
0

>  <i_i_glide_confnum>  (1) 
20

>  <i_i_glide_lignum>  (1) 
56

>  <i_i_glide_posenum>  (1) 
38

>  <i_i_glide_rotatable_bonds>  (1) 
5

>  <i_lp_mmshare_version>  (1) 
72125

>  <i_m_source_file_index>  (1) 
32

>  <i_f3d_flags>  (1) 
0

>  <num_sample>  (1) 
100

>  <b_lp_Chiralities_Consistent>  (1) 
1

>  <r_epik_Charging_Adjusted_Penalty>  (1) 
0.030402742638392096

>  <r_epik_Ionization_Penalty>  (1) 
0.030794834145842404

>  <r_epik_Ionization_Penalty_Charging>  (1) 
0

>  <r_epik_Ionization_Penalty_Neutral>  (1) 
0.030794834145842404

>  <r_epik_State_Penalty>  (1) 
0.030402742638392096

>  <r_glide_ring_energy>  (1) 
1.1497114933671595

>  <r_i_docking_score>  (1) 
-6.9064678757882341

>  <r_i_glide_ecoul>  (1) 
-5.4137384596084415

>  <r_i_glide_eff_state_penalty>  (1) 
0.030402742638392096

>  <r_i_glide_einternal>  (1) 
6.827847552411793

>  <r_i_glide_emodel>  (1) 
-50.60425474429497

>  <r_i_glide_emodel_strain>  (1) 
2.3206897204031236

>  <r_i_glide_energy>  (1) 
-44.874548810421103

>  <r_i_glide_erotb>  (1) 
0.32471647886420552

>  <r_i_glide_esite>  (1) 
-0.076744551384727161

>  <r_i_glide_evdw>  (1) 
-39.460810350812665

>  <r_i_glide_gscore>  (1) 
-6.9368706184266262

>  <r_i_glide_gscore_strain>  (1) 
0

>  <r_i_glide_hbond>  (1) 
-0.32000000000000001

>  <r_i_glide_ligand_efficiency>  (1) 
-0.25579510651067533

>  <r_i_glide_ligand_efficiency_ln>  (1) 
-1.6077118594617681

>  <r_i_glide_ligand_efficiency_sa>  (1) 
-0.76738531953202616

>  <r_i_glide_lipo>  (1) 
-2.8773833182919581

>  <r_i_glide_metal>  (1) 
-0

>  <r_i_glide_rewards>  (1) 
-1.202357941132246

>  <r_lp_Energy>  (1) 
30.5136

>  <r_lp_tautomer_probability>  (1) 
0.99999999999977596

>  <s_epik_cmdline>  (1) 
J2VwaWtfcHl0aG9uJywgJy1waHQnLCAnMS4wJywgJy1waCcsICc3LjQnLCAnLXRuJywgJzgnLCAnLW1hJywgJzUwMCcsICctaW1hZScsICc8aW5maWxlLm1hZT4nLCAnLW9tYWUnLCAnPG91dGZpbGUubWFlPic=

>  <s_epik_input>  (1) 
Q2xbQ0BIXTFbQ0gyXVtDSDJdW0NASF0oQ2wpW0NIMl1bQ0BIXTFbQ0hdKFtDSDJdW0NIMl0yKVtDSDJdW0NIMl1OMmMzc2Mobm4zKS1jNFtjSF1jKFtPSF0pYyhbT0hdKVtjSF1bY0hdNA==

>  <s_glide_docking_method>  (1) 
confgen

>  <s_i_glide_gridfile>  (1) 
gpcr_drd2_6luq_protein_autoprepared_prepared

>  <s_lp_Force_Field>  (1) 
S-OPLS

>  <s_lp_Variant>  (1) 
DiffSBDD_31_num_sample_100-1

>  <s_m_source_file>  (1) 
generated__ligand_DiffSBDD_2026-05-06_prepared.sdf

>  <GenAI_Model>  (1) 
DiffSBDD

>  <Protein>  (1) 
generic_title2

$$$$
DiffSBDD_91_num_sample_100
     RDKit          3D

  0  0  0  0  0  0  0  0  0  0999 V3000
M  V30 BEGIN CTAB
M  V30 COUNTS 91 94 0 0 1
M  V30 BEGIN ATOM
M  V30 1 C 13.779232 1.066274 -19.520617 0
M  V30 2 C 13.028682 0.392995 -20.503135 0
M  V30 3 O 15.377473 4.552061 -19.092417 0 CHG=-1
M  V30 4 C 6.249584 5.725577 -13.079216 0 CFG=2
M  V30 5 O 13.228592 4.370900 -19.647305 0
M  V30 6 F 5.585607 5.832130 -10.803679 0
M  V30 7 C 11.083492 7.644389 -5.741414 0
M  V30 8 C 11.773732 1.281961 -18.141646 0
M  V30 9 C 11.883047 5.558976 -17.103029 0 CFG=2
M  V30 10 F 6.135028 7.627683 -14.404430 0
M  V30 11 C 6.251246 2.848560 -13.893427 0 CFG=2
M  V30 12 C 6.637567 1.600243 -14.709185 0
M  V30 13 C 13.152167 1.521505 -18.340753 0
M  V30 14 O 8.305441 3.591805 -17.595229 0
M  V30 15 C 10.529523 6.792904 -8.846787 0
M  V30 16 C 6.949300 4.001177 -14.639996 0 CFG=2
M  V30 17 C 14.180528 4.299062 -18.833008 0
M  V30 18 C 8.248976 3.399015 -15.175145 0 CFG=1
M  V30 19 C 11.651158 0.171193 -20.309471 0
M  V30 20 C 11.945515 9.514492 -6.305862 0
M  V30 21 C 6.615144 2.703814 -12.416201 0
M  V30 22 C 13.960847 2.287427 -17.290835 0
M  V30 23 O 16.122781 4.110542 -16.293688 0
M  V30 24 C 8.064518 1.861578 -15.176710 0
M  V30 25 F 5.592548 7.865014 -12.318756 0
M  V30 26 S 10.634846 6.633328 -12.010069 0
M  V30 27 C 11.474774 7.909015 -8.374718 0
M  V30 28 C 6.436783 7.256797 -13.158717 0
M  V30 29 N 9.434842 7.284933 -9.676580 0
M  V30 30 F 9.810979 8.969331 -7.122509 0
M  V30 31 N 8.234463 7.701112 -11.491724 0
M  V30 32 C 14.766254 4.515906 -16.305733 0
M  V30 33 Cl 10.729561 -0.639102 -21.520545 0
M  V30 34 C 11.050432 8.490914 -7.024644 0
M  V30 35 C 6.361091 5.153957 -11.644052 0 CFG=1
M  V30 36 O 7.285578 5.140184 -13.857316 0
M  V30 37 C 12.108652 6.328046 -15.787435 0
M  V30 38 C 11.524643 8.897152 -4.969621 0
M  V30 39 C 11.025913 0.609596 -19.126932 0
M  V30 40 C 8.730806 3.990838 -16.512186 0
M  V30 41 C 13.838931 3.848616 -17.372773 0 CFG=1
M  V30 42 C 10.378216 5.501007 -17.453215 0
M  V30 43 O 9.655540 4.955979 -16.351429 0
M  V30 44 C 7.872446 7.753788 -12.903131 0
M  V30 45 N 12.407934 4.165041 -17.070227 0 CHG=1
M  V30 46 C 5.888360 3.720001 -11.517399 0
M  V30 47 F 5.034854 5.470238 -13.565321 0
M  V30 48 C 9.419306 7.220396 -11.041834 0
M  V30 49 H 14.832272 1.245306 -19.676870 0
M  V30 50 H 13.507326 0.053833 -21.409651 0
M  V30 51 H 10.112545 7.242813 -5.445415 0
M  V30 52 H 11.834840 6.856964 -5.766636 0
M  V30 53 H 11.288518 1.621547 -17.239025 0
M  V30 54 H 12.376978 6.111297 -17.900555 0
M  V30 55 H 5.187716 3.022698 -13.889511 0
M  V30 56 H 6.013859 1.471960 -15.594245 0
M  V30 57 H 6.560254 0.672048 -14.140860 0
M  V30 58 H 10.055997 6.356768 -7.965879 0
M  V30 59 H 11.034385 5.946869 -9.250268 0
M  V30 60 H 6.318543 4.321391 -15.470004 0
M  V30 61 H 9.001995 3.663115 -14.429093 0
M  V30 62 H 13.008165 9.369701 -6.508215 0
M  V30 63 H 11.645465 10.554677 -6.443023 0
M  V30 64 H 6.285495 1.712277 -12.092645 0
M  V30 65 H 7.698232 2.748635 -12.291629 0
M  V30 66 H 15.006283 1.994337 -17.397736 0
M  V30 67 H 13.661828 1.936458 -16.302942 0
M  V30 68 H 16.622677 4.793064 -15.871749 0
M  V30 69 H 8.269106 1.388676 -16.140361 0
M  V30 70 H 8.728748 1.390463 -14.451588 0
M  V30 71 H 12.481746 7.503141 -8.287534 0
M  V30 72 H 11.546858 8.691722 -9.133333 0
M  V30 73 H 8.598362 7.646197 -9.207430 0
M  V30 74 H 7.536918 7.995658 -10.798776 0
M  V30 75 H 14.365923 4.361104 -15.303103 0
M  V30 76 H 14.797365 5.590638 -16.483120 0
M  V30 77 H 7.376520 5.231623 -11.260318 0
M  V30 78 H 11.834857 7.367970 -15.929114 0
M  V30 79 H 11.502878 5.929336 -14.975179 0
M  V30 80 H 13.131868 6.352941 -15.435526 0
M  V30 81 H 10.696480 9.435598 -4.507823 0
M  V30 82 H 12.341368 8.737341 -4.264698 0
M  V30 83 H 9.971156 0.433893 -18.977681 0
M  V30 84 H 9.994072 6.499515 -17.658919 0
M  V30 85 H 10.232171 4.920560 -18.365981 0
M  V30 86 H 8.531066 7.176282 -13.534009 0
M  V30 87 H 7.939629 8.797624 -13.204234 0
M  V30 88 H 11.931087 3.688488 -17.825178 0
M  V30 89 H 4.829386 3.769319 -11.746549 0
M  V30 90 H 5.962971 3.402734 -10.475365 0
M  V30 91 H 12.149993 3.743525 -16.188760 0
M  V30 END ATOM
M  V30 BEGIN BOND
M  V30 1 2 2 1
M  V30 2 1 12 11
M  V30 3 1 13 1
M  V30 4 2 13 8
M  V30 5 1 16 11
M  V30 6 1 17 3
M  V30 7 2 17 5
M  V30 8 1 18 16
M  V30 9 1 19 2
M  V30 10 1 21 11
M  V30 11 1 22 13
M  V30 12 1 24 12
M  V30 13 1 24 18
M  V30 14 1 27 15
M  V30 15 1 28 4
M  V30 16 1 28 10
M  V30 17 1 28 25
M  V30 18 1 29 15
M  V30 19 1 32 23
M  V30 20 1 33 19
M  V30 21 1 34 7
M  V30 22 1 34 20
M  V30 23 1 34 27
M  V30 24 1 34 30
M  V30 25 1 35 4
M  V30 26 1 35 6
M  V30 27 1 36 4
M  V30 28 1 36 16
M  V30 29 1 37 9
M  V30 30 1 38 7
M  V30 31 1 38 20
M  V30 32 1 39 8
M  V30 33 2 39 19
M  V30 34 2 40 14
M  V30 35 1 40 18
M  V30 36 1 41 17
M  V30 37 1 41 22 CFG=3
M  V30 38 1 41 32
M  V30 39 1 42 9
M  V30 40 1 43 40
M  V30 41 1 43 42
M  V30 42 1 44 28
M  V30 43 1 44 31
M  V30 44 1 45 9
M  V30 45 1 45 41
M  V30 46 1 46 21
M  V30 47 1 46 35
M  V30 48 1 4 47 CFG=3
M  V30 49 2 48 26
M  V30 50 1 48 29
M  V30 51 1 48 31
M  V30 52 1 49 1
M  V30 53 1 50 2
M  V30 54 1 51 7
M  V30 55 1 52 7
M  V30 56 1 53 8
M  V30 57 1 9 54 CFG=3
M  V30 58 1 11 55 CFG=1
M  V30 59 1 56 12
M  V30 60 1 57 12
M  V30 61 1 58 15
M  V30 62 1 59 15
M  V30 63 1 16 60 CFG=3
M  V30 64 1 18 61 CFG=1
M  V30 65 1 62 20
M  V30 66 1 63 20
M  V30 67 1 64 21
M  V30 68 1 65 21
M  V30 69 1 66 22
M  V30 70 1 67 22
M  V30 71 1 68 23
M  V30 72 1 69 24
M  V30 73 1 70 24
M  V30 74 1 71 27
M  V30 75 1 72 27
M  V30 76 1 73 29
M  V30 77 1 74 31
M  V30 78 1 75 32
M  V30 79 1 76 32
M  V30 80 1 35 77 CFG=1
M  V30 81 1 78 37
M  V30 82 1 79 37
M  V30 83 1 80 37
M  V30 84 1 81 38
M  V30 85 1 82 38
M  V30 86 1 83 39
M  V30 87 1 84 42
M  V30 88 1 85 42
M  V30 89 1 86 44
M  V30 90 1 87 44
M  V30 91 1 88 45
M  V30 92 1 89 46
M  V30 93 1 90 46
M  V30 94 1 91 45
M  V30 END BOND
M  V30 END CTAB
M  END
>  <i_epik_Tot_Q>  (1) 
0

>  <i_epik_Tot_abs_Q>  (1) 
2

>  <i_i_glide_confnum>  (1) 
5125

>  <i_i_glide_lignum>  (1) 
185

>  <i_i_glide_posenum>  (1) 
81

>  <i_i_glide_rotatable_bonds>  (1) 
19

>  <i_lp_mmshare_version>  (1) 
72125

>  <i_m_source_file_index>  (1) 
92

>  <i_f3d_flags>  (1) 
0

>  <num_sample>  (1) 
100

>  <b_lp_Chiralities_Consistent>  (1) 
1

>  <r_epik_Charging_Adjusted_Penalty>  (1) 
0.009474757763754324

>  <r_epik_Ionization_Penalty>  (1) 
0.0047391049881846635

>  <r_epik_Ionization_Penalty_Charging>  (1) 
0.0047383734809194307

>  <r_epik_Ionization_Penalty_Neutral>  (1) 
7.3150726523264564e-07

>  <r_epik_State_Penalty>  (1) 
0.0047363842828348933

>  <r_glide_ring_energy>  (1) 
0.6799158544913404

>  <r_i_docking_score>  (1) 
-6.8979634948038528

>  <r_i_glide_ecoul>  (1) 
-12.505708797038444

>  <r_i_glide_eff_state_penalty>  (1) 
0.0047363842828348933

>  <r_i_glide_einternal>  (1) 
7.9794057982889015

>  <r_i_glide_emodel>  (1) 
-46.584237217996957

>  <r_i_glide_emodel_strain>  (1) 
2.8795690510165741

>  <r_i_glide_energy>  (1) 
-31.369374221823691

>  <r_i_glide_erotb>  (1) 
0.42390194326956793

>  <r_i_glide_esite>  (1) 
-0.42092190184462253

>  <r_i_glide_evdw>  (1) 
-18.863665424785246

>  <r_i_glide_gscore>  (1) 
-6.902699879086688

>  <r_i_glide_gscore_strain>  (1) 
0

>  <r_i_glide_hbond>  (1) 
-0.52178455709063731

>  <r_i_glide_ligand_efficiency>  (1) 
-0.14370757280841359

>  <r_i_glide_ligand_efficiency_ln>  (1) 
-1.4160703857955177

>  <r_i_glide_ligand_efficiency_sa>  (1) 
-0.52226797979218487

>  <r_i_glide_lipo>  (1) 
-2.7995572511990674

>  <r_i_glide_metal>  (1) 
-0

>  <r_i_glide_rewards>  (1) 
-0.76529852142690058

>  <r_lp_Energy>  (1) 
54.172243999999999

>  <s_epik_Chemistry_Notes>  (1) 
This compound has an ester and may undergo hydrolysis at high or low pH.

>  <s_epik_cmdline>  (1) 
J2VwaWtfcHl0aG9uJywgJy1waHQnLCAnMS4wJywgJy1waCcsICc3LjQnLCAnLXRuJywgJzgnLCAnLW1hJywgJzUwMCcsICctaW1hZScsICc8aW5maWxlLm1hZT4nLCAnLW9tYWUnLCAnPG91dGZpbGUubWFlPic=

>  <s_epik_input>  (1) 
W2NIXTFbY0hdYyhDbClbY0hdW2NIXWMxW0NIMl1bQ0BdKEMoPU8pW09IXSkoW0NIMl1bT0hdKVtOSF1bQ0BIXShbQ0gzXSlbQ0gyXU9DKD1PKVtDQEhdKFtDSDJdW0NIMl0yKVtDQEBIXShbQ0BASF0yMylPW0NAQF0oRikoW0NAQEhdKEYpW0NIMl1bQ0gyXTMpQyhGKShGKVtDSDJdW05IXUMoPVMpW05IXVtDSDJdW0NIMl1DNChGKVtDSDJdW0NIMl1bQ0gyXTQ=

>  <s_glide_docking_method>  (1) 
confgen

>  <s_i_glide_gridfile>  (1) 
gpcr_drd2_6luq_protein_autoprepared_prepared

>  <s_lp_Force_Field>  (1) 
S-OPLS

>  <s_lp_Variant>  (1) 
DiffSBDD_91_num_sample_100-1

>  <s_m_source_file>  (1) 
generated__ligand_DiffSBDD_2026-05-06_prepared.sdf

>  <GenAI_Model>  (1) 
DiffSBDD

>  <Protein>  (1) 
generic_title2

$$$$
DiffSBDD_55_num_sample_100
     RDKit          3D

  0  0  0  0  0  0  0  0  0  0999 V3000
M  V30 BEGIN CTAB
M  V30 COUNTS 51 54 0 0 1
M  V30 BEGIN ATOM
M  V30 1 O 6.372308 4.881061 -13.512415 0
M  V30 2 C 12.426626 8.969307 -3.718150 0
M  V30 3 C 9.266891 7.534099 -11.515110 0
M  V30 4 C 11.864531 7.943978 -9.818321 0
M  V30 5 C 8.911054 4.835323 -10.674915 0 CFG=2
M  V30 6 C 8.330614 5.248856 -12.033543 0 CFG=1
M  V30 7 S 11.434838 6.569373 -4.593848 0
M  V30 8 C 12.234823 7.517183 -3.262702 0
M  V30 9 C 11.450185 9.227587 -4.855026 0
M  V30 10 C 7.317579 2.935996 -14.308700 0
M  V30 11 N 9.434842 7.267636 -10.068710 0 CFG=2 CHG=1
M  V30 12 C 7.074710 4.396525 -12.374524 0 CFG=2
M  V30 13 C 8.057239 6.768137 -12.064271 0 CFG=2
M  V30 14 C 7.397399 2.953847 -12.788853 0
M  V30 15 C 7.015876 4.383208 -14.673670 0
M  V30 16 C 11.082894 7.968031 -6.971871 0
M  V30 17 C 10.396464 8.180075 -9.401035 0 CFG=1
M  V30 18 C 10.809022 8.003153 -5.491656 0 CFG=1
M  V30 19 C 8.235056 5.182388 -9.365102 0
M  V30 20 O 11.190371 10.365465 -5.236717 0
M  V30 21 O 7.834819 7.236610 -13.376401 0
M  V30 22 C 10.144356 8.198016 -7.904951 0
M  V30 23 C 9.555937 5.828475 -9.714254 0 CFG=1
M  V30 24 H 12.268175 9.670331 -2.897979 0
M  V30 25 H 13.434834 9.123539 -4.099816 0
M  V30 26 H 10.168916 7.263180 -12.066215 0
M  V30 27 H 9.108981 8.602505 -11.663564 0
M  V30 28 H 12.520098 8.700216 -9.384538 0
M  V30 29 H 12.227007 6.969374 -9.498407 0
M  V30 30 H 11.998786 7.999814 -10.896851 0
M  V30 31 H 9.376649 3.851555 -10.698123 0
M  V30 32 H 9.106343 5.044985 -12.774288 0
M  V30 33 H 11.595321 7.483373 -2.379899 0
M  V30 34 H 13.183678 7.054587 -2.991147 0
M  V30 35 H 6.507094 2.281939 -14.630354 0
M  V30 36 H 8.234814 2.582497 -14.778219 0
M  V30 37 H 6.390305 4.410007 -11.525370 0
M  V30 38 H 7.158586 6.994945 -11.491709 0
M  V30 39 H 8.370242 2.616593 -12.428576 0
M  V30 40 H 6.645616 2.275645 -12.381989 0
M  V30 41 H 6.377889 4.481924 -15.549154 0
M  V30 42 H 7.935915 4.937265 -14.864371 0
M  V30 43 H 12.096844 7.747415 -7.267107 0
M  V30 44 H 10.131759 9.190009 -9.704574 0
M  V30 45 H 9.732698 8.059738 -5.348040 0
M  V30 46 H 8.252348 4.449669 -8.562649 0
M  V30 47 H 7.322859 5.769280 -9.413941 0
M  V30 48 H 7.242691 7.972485 -13.340671 0
M  V30 49 H 9.131364 8.416819 -7.593836 0
M  V30 50 H 10.403645 5.558923 -9.090607 0
M  V30 51 H 8.512754 7.527745 -9.697286 0
M  V30 END ATOM
M  V30 BEGIN BOND
M  V30 1 1 6 5
M  V30 2 1 8 2
M  V30 3 1 8 7
M  V30 4 1 9 2
M  V30 5 1 11 3
M  V30 6 1 12 1
M  V30 7 1 12 6
M  V30 8 1 13 3
M  V30 9 1 13 6
M  V30 10 1 14 10
M  V30 11 1 14 12
M  V30 12 1 15 1
M  V30 13 1 15 10
M  V30 14 1 17 4
M  V30 15 1 17 11
M  V30 16 1 18 7
M  V30 17 1 18 9
M  V30 18 1 18 16
M  V30 19 1 19 5
M  V30 20 2 20 9
M  V30 21 1 21 13
M  V30 22 2 22 16
M  V30 23 1 22 17
M  V30 24 1 23 5
M  V30 25 1 23 11
M  V30 26 1 23 19
M  V30 27 1 24 2
M  V30 28 1 25 2
M  V30 29 1 26 3
M  V30 30 1 27 3
M  V30 31 1 28 4
M  V30 32 1 29 4
M  V30 33 1 30 4
M  V30 34 1 5 31 CFG=3
M  V30 35 1 6 32 CFG=3
M  V30 36 1 33 8
M  V30 37 1 34 8
M  V30 38 1 35 10
M  V30 39 1 36 10
M  V30 40 1 12 37 CFG=1
M  V30 41 1 13 38 CFG=1
M  V30 42 1 39 14
M  V30 43 1 40 14
M  V30 44 1 41 15
M  V30 45 1 42 15
M  V30 46 1 43 16
M  V30 47 1 17 44 CFG=3
M  V30 48 1 18 45 CFG=3
M  V30 49 1 46 19
M  V30 50 1 47 19
M  V30 51 1 48 21
M  V30 52 1 49 22
M  V30 53 1 23 50 CFG=1
M  V30 54 1 11 51 CFG=1
M  V30 END BOND
M  V30 END CTAB
M  END
>  <i_epik_Tot_Q>  (1) 
1

>  <i_epik_Tot_abs_Q>  (1) 
1

>  <i_i_glide_confnum>  (1) 
170

>  <i_i_glide_lignum>  (1) 
100

>  <i_i_glide_posenum>  (1) 
109

>  <i_i_glide_rotatable_bonds>  (1) 
5

>  <i_lp_mmshare_version>  (1) 
72125

>  <i_m_source_file_index>  (1) 
56

>  <i_f3d_flags>  (1) 
0

>  <num_sample>  (1) 
100

>  <b_lp_Chiralities_Consistent>  (1) 
1

>  <r_epik_Charging_Adjusted_Penalty>  (1) 
0.1887110856522376

>  <r_epik_Ionization_Penalty>  (1) 
0.094355642401006162

>  <r_epik_Ionization_Penalty_Charging>  (1) 
0.094355542826118813

>  <r_epik_Ionization_Penalty_Neutral>  (1) 
9.9574887353862298e-08

>  <r_epik_State_Penalty>  (1) 
0.094355542826118799

>  <r_glide_ring_energy>  (1) 
1.2361918707854118

>  <r_i_docking_score>  (1) 
-6.8911284779003763

>  <r_i_glide_ecoul>  (1) 
-5.5667569189870738

>  <r_i_glide_eff_state_penalty>  (1) 
0.094355542826118799

>  <r_i_glide_einternal>  (1) 
3.0135460460129777

>  <r_i_glide_emodel>  (1) 
-59.102035250947509

>  <r_i_glide_emodel_strain>  (1) 
1.2065555284837615

>  <r_i_glide_energy>  (1) 
-41.29693284228577

>  <r_i_glide_erotb>  (1) 
0.49519417565235591

>  <r_i_glide_esite>  (1) 
-0.10000000000000001

>  <r_i_glide_evdw>  (1) 
-35.730175923298695

>  <r_i_glide_gscore>  (1) 
-6.9854840207264948

>  <r_i_glide_gscore_strain>  (1) 
0

>  <r_i_glide_hbond>  (1) 
-0.20000000000000001

>  <r_i_glide_ligand_efficiency>  (1) 
-0.29961428164784243

>  <r_i_glide_ligand_efficiency_ln>  (1) 
-1.6663373512546673

>  <r_i_glide_ligand_efficiency_sa>  (1) 
-0.85206316227024603

>  <r_i_glide_lipo>  (1) 
-2.1079701350931259

>  <r_i_glide_metal>  (1) 
-0

>  <r_i_glide_rewards>  (1) 
-2.4511857272727284

>  <r_lp_Energy>  (1) 
19.402072999999998

>  <r_lp_tautomer_probability>  (1) 
0.99995000000000001

>  <s_epik_cmdline>  (1) 
J2VwaWtfcHl0aG9uJywgJy1waHQnLCAnMS4wJywgJy1waCcsICc3LjQnLCAnLXRuJywgJzgnLCAnLW1hJywgJzUwMCcsICctaW1hZScsICc8aW5maWxlLm1hZT4nLCAnLW9tYWUnLCAnPG91dGZpbGUubWFlPic=

>  <s_epik_input>  (1) 
W0NIMl0xW0NIMl1bQ0gyXU9bQ0BASF0xW0NASF0yW0NASF0oW09IXSlbQ0gyXU4oW0NASF0oW0NASF0yMylbQ0gyXTMpW0NASF0oW0NIM10pXFtDSF09W0NIXVxbQ0BIXTRTW0NIMl1bQ0gyXUM0PU8=

>  <s_glide_docking_method>  (1) 
confgen

>  <s_i_glide_gridfile>  (1) 
gpcr_drd2_6luq_protein_autoprepared_prepared

>  <s_lp_Force_Field>  (1) 
S-OPLS

>  <s_lp_Variant>  (1) 
DiffSBDD_55_num_sample_100-1

>  <s_m_source_file>  (1) 
generated__ligand_DiffSBDD_2026-05-06_prepared.sdf

>  <GenAI_Model>  (1) 
DiffSBDD

>  <Protein>  (1) 
generic_title2

$$$$
DiffSBDD_48_num_sample_100
     RDKit          3D

  0  0  0  0  0  0  0  0  0  0999 V3000
M  V30 BEGIN CTAB
M  V30 COUNTS 51 53 0 0 1
M  V30 BEGIN ATOM
M  V30 1 O 12.634843 7.251893 -1.778554 0
M  V30 2 O 7.380659 6.169295 -14.976088 0
M  V30 3 C 10.625757 6.471121 -6.242344 0
M  V30 4 C 6.275287 6.292657 -14.101866 0
M  V30 5 C 7.741673 5.469041 -12.145632 0
M  V30 6 N 10.628937 7.553904 -7.322818 0
M  V30 7 C 6.687562 6.481305 -12.620812 0 CFG=2
M  V30 8 N 9.698591 7.425936 -8.370271 0
M  V30 9 C 11.834833 9.527335 -4.569310 0
M  V30 10 C 5.434842 6.416877 -11.742250 0
M  V30 11 C 9.460382 6.528938 -10.672695 0
M  V30 12 C 12.831263 5.860631 -1.579229 0
M  V30 13 C 8.391517 4.569306 -9.945737 0
M  V30 14 C 12.201732 7.691748 -2.999620 0
M  V30 15 C 11.304181 8.605260 -5.474834 0
M  V30 16 C 12.288065 9.068939 -3.315088 0
M  V30 17 C 9.282048 4.995686 -8.786836 0
M  V30 18 C 9.960110 6.295487 -9.247541 0 CFG=2
M  V30 19 O 7.226496 7.769302 -12.469137 0
M  V30 20 N 8.203241 5.768651 -10.767479 0 CFG=2 CHG=1
M  V30 21 C 11.213223 7.299302 -5.179963 0
M  V30 22 C 11.651036 6.792862 -3.951270 0
M  V30 23 C 10.801078 8.969297 -6.802028 0
M  V30 24 H 7.806747 5.339848 -14.826947 0
M  V30 25 H 9.611249 6.169308 -5.982505 0
M  V30 26 H 11.249902 5.625197 -6.528448 0
M  V30 27 H 5.660485 7.130013 -14.436772 0
M  V30 28 H 5.663108 5.396501 -14.213937 0
M  V30 29 H 7.294276 4.473996 -12.181983 0
M  V30 30 H 8.597682 5.434318 -12.820396 0
M  V30 31 H 8.744402 7.407355 -8.007763 0
M  V30 32 H 11.891758 10.569316 -4.825683 0
M  V30 33 H 4.970208 5.436134 -11.820707 0
M  V30 34 H 5.648097 6.569285 -10.691240 0
M  V30 35 H 4.717193 7.186164 -12.025924 0
M  V30 36 H 10.192056 6.134161 -11.379513 0
M  V30 37 H 9.321071 7.586178 -10.900090 0
M  V30 38 H 13.434832 5.694994 -0.691663 0
M  V30 39 H 11.870614 5.369828 -1.442611 0
M  V30 40 H 13.379092 5.388611 -2.389012 0
M  V30 41 H 7.433329 4.169319 -9.612500 0
M  V30 42 H 8.906028 3.811930 -10.543614 0
M  V30 43 H 12.696991 9.765016 -2.598437 0
M  V30 44 H 8.676084 5.154408 -7.893535 0
M  V30 45 H 10.012559 4.220883 -8.559146 0
M  V30 46 H 11.034924 6.170620 -9.277372 0
M  V30 47 H 7.039415 8.079694 -11.590426 0
M  V30 48 H 11.563400 5.742873 -3.737563 0
M  V30 49 H 11.503155 9.542349 -7.407212 0
M  V30 50 H 9.834811 9.454788 -6.704618 0
M  V30 51 H 7.506101 6.347885 -10.298528 0
M  V30 END ATOM
M  V30 BEGIN BOND
M  V30 1 1 4 2
M  V30 2 1 6 3
M  V30 3 1 7 4
M  V30 4 1 7 5
M  V30 5 1 8 6
M  V30 6 1 10 7
M  V30 7 1 12 1
M  V30 8 1 14 1
M  V30 9 1 15 9
M  V30 10 2 16 9
M  V30 11 1 16 14
M  V30 12 1 17 13
M  V30 13 1 18 8
M  V30 14 1 18 11
M  V30 15 1 18 17
M  V30 16 1 7 19 CFG=3
M  V30 17 1 20 5
M  V30 18 1 20 11
M  V30 19 1 20 13
M  V30 20 1 21 3
M  V30 21 2 21 15
M  V30 22 2 22 14
M  V30 23 1 22 21
M  V30 24 1 23 6
M  V30 25 1 23 15
M  V30 26 1 24 2
M  V30 27 1 25 3
M  V30 28 1 26 3
M  V30 29 1 27 4
M  V30 30 1 28 4
M  V30 31 1 29 5
M  V30 32 1 30 5
M  V30 33 1 31 8
M  V30 34 1 32 9
M  V30 35 1 33 10
M  V30 36 1 34 10
M  V30 37 1 35 10
M  V30 38 1 36 11
M  V30 39 1 37 11
M  V30 40 1 38 12
M  V30 41 1 39 12
M  V30 42 1 40 12
M  V30 43 1 41 13
M  V30 44 1 42 13
M  V30 45 1 43 16
M  V30 46 1 44 17
M  V30 47 1 45 17
M  V30 48 1 18 46 CFG=3
M  V30 49 1 47 19
M  V30 50 1 48 22
M  V30 51 1 49 23
M  V30 52 1 50 23
M  V30 53 1 20 51 CFG=1
M  V30 END BOND
M  V30 END CTAB
M  END
>  <i_epik_Tot_Q>  (1) 
1

>  <i_epik_Tot_abs_Q>  (1) 
1

>  <i_i_glide_confnum>  (1) 
4

>  <i_i_glide_lignum>  (1) 
90

>  <i_i_glide_posenum>  (1) 
161

>  <i_i_glide_rotatable_bonds>  (1) 
8

>  <i_lp_mmshare_version>  (1) 
72125

>  <i_m_source_file_index>  (1) 
49

>  <i_f3d_flags>  (1) 
0

>  <num_sample>  (1) 
100

>  <b_lp_Chiralities_Consistent>  (1) 
1

>  <r_epik_Charging_Adjusted_Penalty>  (1) 
0.014070542232369893

>  <r_epik_Ionization_Penalty>  (1) 
0.01444304470814459

>  <r_epik_Ionization_Penalty_Charging>  (1) 
0.014070542232369893

>  <r_epik_Ionization_Penalty_Neutral>  (1) 
0.00037250247577469821

>  <r_epik_State_Penalty>  (1) 
-0

>  <r_glide_ring_energy>  (1) 
0

>  <r_i_docking_score>  (1) 
-6.885384165801347

>  <r_i_glide_ecoul>  (1) 
-9.1598901752668098

>  <r_i_glide_eff_state_penalty>  (1) 
-0

>  <r_i_glide_einternal>  (1) 
5.8322462204999486

>  <r_i_glide_emodel>  (1) 
-56.902829822767302

>  <r_i_glide_emodel_strain>  (1) 
0.89152474459075393

>  <r_i_glide_energy>  (1) 
-38.537986004031332

>  <r_i_glide_erotb>  (1) 
0.89938055447957976

>  <r_i_glide_esite>  (1) 
-0.19269816837880061

>  <r_i_glide_evdw>  (1) 
-29.378095828764522

>  <r_i_glide_gscore>  (1) 
-6.885384165801347

>  <r_i_glide_gscore_strain>  (1) 
0

>  <r_i_glide_hbond>  (1) 
-0.33447820387619015

>  <r_i_glide_ligand_efficiency>  (1) 
-0.29936452894788468

>  <r_i_glide_ligand_efficiency_ln>  (1) 
-1.6649483245025796

>  <r_i_glide_ligand_efficiency_sa>  (1) 
-0.85135289881370735

>  <r_i_glide_lipo>  (1) 
-2.5573349643717154

>  <r_i_glide_metal>  (1) 
-0

>  <r_i_glide_rewards>  (1) 
-1.8573650659259715

>  <r_lp_Energy>  (1) 
29.344918999999997

>  <r_lp_tautomer_probability>  (1) 
1

>  <s_epik_cmdline>  (1) 
J2VwaWtfcHl0aG9uJywgJy1waHQnLCAnMS4wJywgJy1waCcsICc3LjQnLCAnLXRuJywgJzgnLCAnLW1hJywgJzUwMCcsICctaW1hZScsICc8aW5maWxlLm1hZT4nLCAnLW9tYWUnLCAnPG91dGZpbGUubWFlPic=

>  <s_epik_input>  (1) 
W2NIXTFbY0hdYyhPW0NIM10pW2NIXWMoYzEyKVtDSDJdTihbQ0gyXTIpW05IXVtDQEBIXTNbQ0gyXU4oW0NIMl1bQ0gyXTMpW0NIMl1bQ0BAXShbQ0gzXSkoW09IXSlbQ0gyXVtPSF0=

>  <s_glide_docking_method>  (1) 
confgen

>  <s_i_glide_gridfile>  (1) 
gpcr_drd2_6luq_protein_autoprepared_prepared

>  <s_lp_Force_Field>  (1) 
S-OPLS

>  <s_lp_Variant>  (1) 
DiffSBDD_48_num_sample_100-2

>  <s_m_source_file>  (1) 
generated__ligand_DiffSBDD_2026-05-06_prepared.sdf

>  <GenAI_Model>  (1) 
DiffSBDD

>  <Protein>  (1) 
generic_title2

$$$$
DiffSBDD_55_num_sample_100
     RDKit          3D

  0  0  0  0  0  0  0  0  0  0999 V3000
M  V30 BEGIN CTAB
M  V30 COUNTS 51 54 0 0 1
M  V30 BEGIN ATOM
M  V30 1 O 6.981151 4.995733 -13.631710 0
M  V30 2 C 12.183157 9.233448 -3.851804 0
M  V30 3 C 9.334012 7.769307 -11.205587 0
M  V30 4 C 11.639664 8.372064 -8.990643 0
M  V30 5 C 9.209157 4.979901 -10.545030 0 CFG=2
M  V30 6 C 8.716283 5.431004 -11.925504 0 CFG=1
M  V30 7 S 11.434838 6.722377 -4.661202 0
M  V30 8 C 12.272751 7.762919 -3.434444 0
M  V30 9 C 11.776196 9.291193 -5.316519 0
M  V30 10 C 7.573931 2.884327 -14.311242 0
M  V30 11 N 9.434839 7.410104 -9.772716 0 CFG=2 CHG=1
M  V30 12 C 7.645624 4.454710 -12.484953 0 CFG=2
M  V30 13 C 8.248212 6.895447 -11.861127 0 CFG=2
M  V30 14 C 8.234777 3.117658 -12.969183 0
M  V30 15 C 7.383765 4.306555 -14.804178 0
M  V30 16 C 9.828296 8.180068 -6.312544 0
M  V30 17 C 10.100420 8.395732 -8.884083 0 CFG=1
M  V30 18 C 11.280415 7.989665 -5.942488 0 CFG=2
M  V30 19 C 8.446747 5.192031 -9.253478 0
M  V30 20 O 11.834839 10.335657 -5.960251 0
M  V30 21 O 7.929140 7.417251 -13.121636 0
M  V30 22 C 9.326725 8.360416 -7.552922 0
M  V30 23 C 9.716052 5.977505 -9.503084 0 CFG=1
M  V30 24 H 11.426786 9.752568 -3.262888 0
M  V30 25 H 13.132342 9.747097 -3.697178 0
M  V30 26 H 10.296755 7.660674 -11.705916 0
M  V30 27 H 9.034793 8.814167 -11.293487 0
M  V30 28 H 12.099625 9.138060 -8.368191 0
M  V30 29 H 12.077387 7.404520 -8.753840 0
M  V30 30 H 11.946488 8.597708 -10.012335 0
M  V30 31 H 9.749069 4.036500 -10.591199 0
M  V30 32 H 9.579427 5.410506 -12.593324 0
M  V30 33 H 11.834944 7.601361 -2.449026 0
M  V30 34 H 13.317294 7.455923 -3.377271 0
M  V30 35 H 6.605894 2.399845 -14.176603 0
M  V30 36 H 8.174679 2.273174 -14.985431 0
M  V30 37 H 6.876055 4.277905 -11.731964 0
M  V30 38 H 7.317690 6.941474 -11.303496 0
M  V30 39 H 9.314554 3.199702 -13.089142 0
M  V30 40 H 8.054458 2.288131 -12.291855 0
M  V30 41 H 6.637209 4.386882 -15.594306 0
M  V30 42 H 8.323931 4.723488 -15.168949 0
M  V30 43 H 9.139994 8.169577 -5.491676 0
M  V30 44 H 9.814054 9.369281 -9.272289 0
M  V30 45 H 11.925381 7.687854 -6.751388 0
M  V30 46 H 8.501258 4.424475 -8.485415 0
M  V30 47 H 7.489880 5.705862 -9.306693 0
M  V30 48 H 7.373909 6.776022 -13.552244 0
M  V30 49 H 8.263315 8.494849 -7.638666 0
M  V30 50 H 10.582247 5.760030 -8.883540 0
M  V30 51 H 8.449750 7.511780 -9.492082 0
M  V30 END ATOM
M  V30 BEGIN BOND
M  V30 1 1 6 5
M  V30 2 1 8 2
M  V30 3 1 8 7
M  V30 4 1 9 2
M  V30 5 1 11 3
M  V30 6 1 12 1
M  V30 7 1 12 6
M  V30 8 1 13 3
M  V30 9 1 13 6
M  V30 10 1 14 10
M  V30 11 1 14 12
M  V30 12 1 15 1
M  V30 13 1 15 10
M  V30 14 1 17 4
M  V30 15 1 17 11
M  V30 16 1 18 7
M  V30 17 1 18 9
M  V30 18 1 18 16
M  V30 19 1 19 5
M  V30 20 2 20 9
M  V30 21 1 21 13
M  V30 22 2 22 16
M  V30 23 1 22 17
M  V30 24 1 23 5
M  V30 25 1 23 11
M  V30 26 1 23 19
M  V30 27 1 24 2
M  V30 28 1 25 2
M  V30 29 1 26 3
M  V30 30 1 27 3
M  V30 31 1 28 4
M  V30 32 1 29 4
M  V30 33 1 30 4
M  V30 34 1 5 31 CFG=3
M  V30 35 1 6 32 CFG=3
M  V30 36 1 33 8
M  V30 37 1 34 8
M  V30 38 1 35 10
M  V30 39 1 36 10
M  V30 40 1 12 37 CFG=1
M  V30 41 1 13 38 CFG=1
M  V30 42 1 39 14
M  V30 43 1 40 14
M  V30 44 1 41 15
M  V30 45 1 42 15
M  V30 46 1 43 16
M  V30 47 1 17 44 CFG=3
M  V30 48 1 18 45 CFG=3
M  V30 49 1 46 19
M  V30 50 1 47 19
M  V30 51 1 48 21
M  V30 52 1 49 22
M  V30 53 1 23 50 CFG=1
M  V30 54 1 11 51 CFG=1
M  V30 END BOND
M  V30 END CTAB
M  END
>  <i_epik_Tot_Q>  (1) 
1

>  <i_epik_Tot_abs_Q>  (1) 
1

>  <i_i_glide_confnum>  (1) 
42

>  <i_i_glide_lignum>  (1) 
106

>  <i_i_glide_posenum>  (1) 
94

>  <i_i_glide_rotatable_bonds>  (1) 
5

>  <i_lp_mmshare_version>  (1) 
72125

>  <i_m_source_file_index>  (1) 
56

>  <i_f3d_flags>  (1) 
0

>  <num_sample>  (1) 
100

>  <b_lp_Chiralities_Consistent>  (1) 
1

>  <r_epik_Charging_Adjusted_Penalty>  (1) 
0.1887110856522376

>  <r_epik_Ionization_Penalty>  (1) 
0.094355642401006162

>  <r_epik_Ionization_Penalty_Charging>  (1) 
0.094355542826118813

>  <r_epik_Ionization_Penalty_Neutral>  (1) 
9.9574887353862298e-08

>  <r_epik_State_Penalty>  (1) 
0.094355542826118799

>  <r_glide_ring_energy>  (1) 
0.48034924446919847

>  <r_i_docking_score>  (1) 
-6.8838858472144029

>  <r_i_glide_ecoul>  (1) 
-6.7159343705322634

>  <r_i_glide_eff_state_penalty>  (1) 
0.094355542826118799

>  <r_i_glide_einternal>  (1) 
5.0725404953776874

>  <r_i_glide_emodel>  (1) 
-54.405409170534647

>  <r_i_glide_emodel_strain>  (1) 
1.0801615702351555

>  <r_i_glide_energy>  (1) 
-39.542817325654752

>  <r_i_glide_erotb>  (1) 
0.49519417565235591

>  <r_i_glide_esite>  (1) 
-0.10000000000000001

>  <r_i_glide_evdw>  (1) 
-32.826882955122485

>  <r_i_glide_gscore>  (1) 
-6.9782413900405214

>  <r_i_glide_gscore_strain>  (1) 
0

>  <r_i_glide_hbond>  (1) 
-0.20000000000000001

>  <r_i_glide_ligand_efficiency>  (1) 
-0.2992993846614958

>  <r_i_glide_ligand_efficiency_ln>  (1) 
-1.6645860174822547

>  <r_i_glide_ligand_efficiency_sa>  (1) 
-0.85116763712872001

>  <r_i_glide_lipo>  (1) 
-2.2099464538489921

>  <r_i_glide_metal>  (1) 
-0

>  <r_i_glide_rewards>  (1) 
-2.3147548085079208

>  <r_lp_Energy>  (1) 
23.659068999999999

>  <r_lp_tautomer_probability>  (1) 
0.99995000000000001

>  <s_epik_cmdline>  (1) 
J2VwaWtfcHl0aG9uJywgJy1waHQnLCAnMS4wJywgJy1waCcsICc3LjQnLCAnLXRuJywgJzgnLCAnLW1hJywgJzUwMCcsICctaW1hZScsICc8aW5maWxlLm1hZT4nLCAnLW9tYWUnLCAnPG91dGZpbGUubWFlPic=

>  <s_epik_input>  (1) 
W0NIMl0xW0NIMl1bQ0gyXU9bQ0BASF0xW0NASF0yW0NASF0oW09IXSlbQ0gyXU4oW0NASF0oW0NASF0yMylbQ0gyXTMpW0NASF0oW0NIM10pL1tDSF09W0NIXVxbQ0BASF00U1tDSDJdW0NIMl1DND1P

>  <s_glide_docking_method>  (1) 
confgen

>  <s_i_glide_gridfile>  (1) 
gpcr_drd2_6luq_protein_autoprepared_prepared

>  <s_lp_Force_Field>  (1) 
S-OPLS

>  <s_lp_Variant>  (1) 
DiffSBDD_55_num_sample_100-7

>  <s_m_source_file>  (1) 
generated__ligand_DiffSBDD_2026-05-06_prepared.sdf

>  <GenAI_Model>  (1) 
DiffSBDD

>  <Protein>  (1) 
generic_title2

$$$$
DiffSBDD_30_num_sample_100
     RDKit          3D

  0  0  0  0  0  0  0  0  0  0999 V3000
M  V30 BEGIN CTAB
M  V30 COUNTS 49 51 0 0 1
M  V30 BEGIN ATOM
M  V30 1 C 6.373701 5.529749 -13.090738 0
M  V30 2 C 5.774469 6.679299 -16.168793 0
M  V30 3 S 8.599574 5.314543 -9.891870 0
M  V30 4 C 9.494979 6.754392 -9.413930 0
M  V30 5 F 12.619657 7.683840 -2.321425 0
M  V30 6 C 7.849872 5.237770 -12.739185 0 CFG=1
M  V30 7 C 8.314962 6.111911 -11.527863 0 CFG=2
M  V30 8 C 5.707476 8.157155 -15.869398 0
M  V30 9 C 8.031538 3.718486 -12.563832 0
M  V30 10 C 6.095568 6.969244 -13.566040 0
M  V30 11 C 10.473800 8.115236 -7.587218 0
M  V30 12 C 11.034877 7.994124 -6.174321 0
M  V30 13 C 12.234834 8.986184 -4.288837 0
M  V30 14 N 9.755945 6.942584 -8.107983 0
M  V30 15 C 12.104749 7.784826 -3.569606 0
M  V30 16 F 11.834796 10.249143 -6.280141 0
M  V30 17 C 10.675082 6.569332 -12.485955 0
M  V30 18 C 6.528541 7.241179 -14.986980 0
M  V30 19 C 11.701479 9.093216 -5.589375 0
M  V30 20 N 9.834840 7.549334 -10.421522 0 CHG=1
M  V30 21 C 10.902436 6.788533 -5.447529 0
M  V30 22 C 11.435160 6.687508 -4.147548 0
M  V30 23 O 9.372420 3.369303 -12.291672 0
M  V30 24 C 9.449858 7.163503 -11.779782 0 CFG=2
M  V30 25 H 6.025488 4.835775 -13.857477 0
M  V30 26 H 5.757338 5.324429 -12.213747 0
M  V30 27 H 6.357078 6.366057 -17.032428 0
M  V30 28 H 4.881751 6.091120 -15.970531 0
M  V30 29 H 8.423230 5.515010 -13.620548 0
M  V30 30 H 7.457975 6.722386 -11.260896 0
M  V30 31 H 4.763566 8.539273 -15.486070 0
M  V30 32 H 6.234843 8.834954 -16.531556 0
M  V30 33 H 7.729072 3.192912 -13.470777 0
M  V30 34 H 7.372882 3.369322 -11.774754 0
M  V30 35 H 5.034789 7.157261 -13.495047 0
M  V30 36 H 6.554861 7.716276 -12.920927 0
M  V30 37 H 11.304794 8.338980 -8.256787 0
M  V30 38 H 9.797567 8.969110 -7.622387 0
M  V30 39 H 12.747309 9.824425 -3.844814 0
M  V30 40 H 9.416800 6.266322 -7.439234 0
M  V30 41 H 10.462767 6.169310 -13.477068 0
M  V30 42 H 11.482871 7.293757 -12.584164 0
M  V30 43 H 11.034846 5.731866 -11.901513 0
M  V30 44 H 7.607259 7.294418 -15.091651 0
M  V30 45 H 10.395624 5.941504 -5.882365 0
M  V30 46 H 11.333409 5.769248 -3.593257 0
M  V30 47 H 9.412717 2.457742 -12.026766 0
M  V30 48 H 9.070626 8.026414 -12.328124 0
M  V30 49 H 10.345604 8.405059 -10.269902 0
M  V30 END ATOM
M  V30 BEGIN BOND
M  V30 1 1 4 3
M  V30 2 1 6 1
M  V30 3 1 7 3
M  V30 4 1 7 6
M  V30 5 1 8 2
M  V30 6 1 9 6
M  V30 7 1 10 1
M  V30 8 1 12 11
M  V30 9 1 14 4
M  V30 10 1 14 11
M  V30 11 1 15 5
M  V30 12 2 15 13
M  V30 13 1 18 2
M  V30 14 1 18 8
M  V30 15 1 18 10
M  V30 16 2 19 12
M  V30 17 1 19 13
M  V30 18 1 19 16
M  V30 19 2 20 4
M  V30 20 1 21 12
M  V30 21 1 22 15
M  V30 22 2 22 21
M  V30 23 1 23 9
M  V30 24 1 24 7
M  V30 25 1 24 17
M  V30 26 1 24 20
M  V30 27 1 25 1
M  V30 28 1 26 1
M  V30 29 1 27 2
M  V30 30 1 28 2
M  V30 31 1 6 29 CFG=3
M  V30 32 1 7 30 CFG=1
M  V30 33 1 31 8
M  V30 34 1 32 8
M  V30 35 1 33 9
M  V30 36 1 34 9
M  V30 37 1 35 10
M  V30 38 1 36 10
M  V30 39 1 37 11
M  V30 40 1 38 11
M  V30 41 1 39 13
M  V30 42 1 40 14
M  V30 43 1 41 17
M  V30 44 1 42 17
M  V30 45 1 43 17
M  V30 46 1 44 18
M  V30 47 1 45 21
M  V30 48 1 46 22
M  V30 49 1 47 23
M  V30 50 1 24 48 CFG=3
M  V30 51 1 49 20
M  V30 END BOND
M  V30 END CTAB
M  END
>  <i_epik_Tot_Q>  (1) 
1

>  <i_epik_Tot_abs_Q>  (1) 
1

>  <i_i_glide_confnum>  (1) 
242

>  <i_i_glide_lignum>  (1) 
55

>  <i_i_glide_posenum>  (1) 
391

>  <i_i_glide_rotatable_bonds>  (1) 
9

>  <i_lp_mmshare_version>  (1) 
72125

>  <i_m_source_file_index>  (1) 
31

>  <i_f3d_flags>  (1) 
0

>  <num_sample>  (1) 
100

>  <b_lp_Chiralities_Consistent>  (1) 
1

>  <r_epik_Charging_Adjusted_Penalty>  (1) 
0.10703469102833196

>  <r_epik_Ionization_Penalty>  (1) 
0.069318960315332093

>  <r_epik_Ionization_Penalty_Charging>  (1) 
0.03959288354667883

>  <r_epik_Ionization_Penalty_Neutral>  (1) 
0.029726076768653267

>  <r_epik_State_Penalty>  (1) 
0.06744180748165314

>  <r_glide_ring_energy>  (1) 
0

>  <r_i_docking_score>  (1) 
-6.8794395101457253

>  <r_i_glide_ecoul>  (1) 
-2.8697967875887787

>  <r_i_glide_eff_state_penalty>  (1) 
0.06744180748165314

>  <r_i_glide_einternal>  (1) 
3.8430474579786287

>  <r_i_glide_emodel>  (1) 
-49.827431056778337

>  <r_i_glide_emodel_strain>  (1) 
0.51460701876222004

>  <r_i_glide_energy>  (1) 
-34.182194007449169

>  <r_i_glide_erotb>  (1) 
1.0592382888714553

>  <r_i_glide_esite>  (1) 
-0.26513049223324342

>  <r_i_glide_evdw>  (1) 
-31.31239721986039

>  <r_i_glide_gscore>  (1) 
-6.946881317627378

>  <r_i_glide_gscore_strain>  (1) 
0

>  <r_i_glide_hbond>  (1) 
-0.16808488482826087

>  <r_i_glide_ligand_efficiency>  (1) 
-0.28664331292273854

>  <r_i_glide_ligand_efficiency_ln>  (1) 
-1.64656555168721

>  <r_i_glide_ligand_efficiency_sa>  (1) 
-0.82682238978862332

>  <r_i_glide_lipo>  (1) 
-2.9955750057523907

>  <r_i_glide_metal>  (1) 
-0

>  <r_i_glide_rewards>  (1) 
-2.5812398445536022

>  <r_lp_Energy>  (1) 
13.443218999999999

>  <s_epik_Chemistry_Notes>  (1) 
This compound has an imine and may undergo hydrolysis.

>  <s_epik_cmdline>  (1) 
J2VwaWtfcHl0aG9uJywgJy1waHQnLCAnMS4wJywgJy1waCcsICc3LjQnLCAnLXRuJywgJzgnLCAnLW1hJywgJzUwMCcsICctaW1hZScsICc8aW5maWxlLm1hZT4nLCAnLW9tYWUnLCAnPG91dGZpbGUubWFlPic=

>  <s_epik_input>  (1) 
W0NIMl0xW0NIMl1bQ0hdMVtDSDJdW0NIMl1bQ0BIXShbQ0gyXVtPSF0pW0NAQEhdKFMyKVtDQEhdKFtDSDNdKU49QzJbTkhdW0NIMl1jM2MoRilbY0hdYyhGKVtjSF1bY0hdMw==

>  <s_glide_docking_method>  (1) 
confgen

>  <s_i_glide_gridfile>  (1) 
gpcr_drd2_6luq_protein_autoprepared_prepared

>  <s_lp_Force_Field>  (1) 
S-OPLS

>  <s_lp_Variant>  (1) 
DiffSBDD_30_num_sample_100-1

>  <s_m_source_file>  (1) 
generated__ligand_DiffSBDD_2026-05-06_prepared.sdf

>  <GenAI_Model>  (1) 
DiffSBDD

>  <Protein>  (1) 
generic_title2

$$$$
DiffSBDD_27_num_sample_100
     RDKit          3D

  0  0  0  0  0  0  0  0  0  0999 V3000
M  V30 BEGIN CTAB
M  V30 COUNTS 57 57 0 0 1
M  V30 BEGIN ATOM
M  V30 1 C 5.464604 6.628821 -16.603379 0 CFG=2
M  V30 2 C 8.819033 3.965168 -11.955207 0
M  V30 3 N 5.993041 7.790029 -15.891674 0
M  V30 4 C 10.449222 6.569317 -6.107886 0
M  V30 5 C 6.237083 6.010534 -18.761611 0
M  V30 6 C 6.627195 3.569513 -13.173418 0
M  V30 7 N 7.889498 6.169294 -11.429381 0 CHG=1
M  V30 8 C 8.778412 5.106312 -8.291668 0
M  V30 9 C 9.793681 7.274079 -7.309571 0
M  V30 10 C 10.858897 7.559395 -8.385640 0
M  V30 11 C 8.231035 4.846111 -10.862700 0 CFG=2
M  V30 12 C 9.283052 4.957333 -9.735487 0
M  V30 13 C 6.407520 5.369294 -16.534742 0
M  V30 14 C 5.525971 5.698762 -13.706311 0
M  V30 15 C 5.329314 6.934414 -18.152850 0
M  V30 16 O 4.621287 7.769289 -18.707495 0
M  V30 17 C 6.703934 4.451697 -15.562282 0
M  V30 18 N 8.634844 6.503336 -7.840035 0 CHG=1
M  V30 19 N 6.304712 4.575373 -14.197306 0
M  V30 20 C 6.791156 5.200804 -17.904740 0
M  V30 21 C 7.460147 3.160718 -15.903656 0
M  V30 22 C 9.229596 8.616409 -6.833303 0
M  V30 23 C 8.118827 3.404847 -12.954509 0
M  V30 24 H 4.475068 6.376800 -16.227823 0
M  V30 25 H 9.882644 3.785226 -11.904710 0
M  V30 26 H 6.881003 8.077070 -16.277552 0
M  V30 27 H 5.378276 8.586376 -16.000943 0
M  V30 28 H 9.710336 6.224582 -5.383887 0
M  V30 29 H 11.043917 5.714569 -6.422837 0
M  V30 30 H 11.133033 7.237600 -5.582906 0
M  V30 31 H 6.425121 6.008894 -19.825106 0
M  V30 32 H 6.146911 3.808809 -12.226850 0
M  V30 33 H 6.193946 2.607670 -13.448736 0
M  V30 34 H 7.258828 6.036409 -12.207243 0
M  V30 35 H 7.434835 6.765844 -10.735546 0
M  V30 36 H 7.811547 4.613591 -8.191358 0
M  V30 37 H 9.434824 4.575537 -7.612261 0
M  V30 38 H 10.418600 7.982743 -9.289276 0
M  V30 39 H 11.598809 8.274163 -8.023080 0
M  V30 40 H 11.414884 6.662560 -8.655435 0
M  V30 41 H 7.325489 4.374983 -10.478818 0
M  V30 42 H 9.834843 4.017913 -9.712312 0
M  V30 43 H 10.019769 5.707255 -10.003148 0
M  V30 44 H 6.103362 6.620149 -13.730159 0
M  V30 45 H 4.634842 5.791950 -14.306880 0
M  V30 46 H 5.186563 5.562246 -12.680053 0
M  V30 47 H 8.151095 7.047150 -8.557240 0
M  V30 48 H 7.502706 4.451267 -18.215218 0
M  V30 49 H 7.236057 2.308983 -15.267685 0
M  V30 50 H 7.176578 2.796849 -16.890215 0
M  V30 51 H 8.535693 3.338099 -15.914752 0
M  V30 52 H 8.466378 8.487022 -6.066492 0
M  V30 53 H 10.011064 9.253338 -6.416617 0
M  V30 54 H 8.763469 9.163482 -7.653800 0
M  V30 55 H 8.634857 2.790134 -13.667612 0
M  V30 56 H 7.950599 6.494564 -7.091690 0
M  V30 57 H 8.722348 6.628326 -11.766765 0
M  V30 END ATOM
M  V30 BEGIN BOND
M  V30 1 1 3 1
M  V30 2 1 9 4
M  V30 3 1 10 9
M  V30 4 1 11 2
M  V30 5 1 11 7
M  V30 6 1 12 8
M  V30 7 1 12 11
M  V30 8 1 13 1
M  V30 9 1 15 1
M  V30 10 1 15 5
M  V30 11 2 16 15
M  V30 12 2 17 13
M  V30 13 1 18 8
M  V30 14 1 18 9
M  V30 15 1 19 6
M  V30 16 1 19 14
M  V30 17 1 19 17
M  V30 18 2 20 5
M  V30 19 1 20 13
M  V30 20 1 21 17
M  V30 21 1 22 9
M  V30 22 2 23 2
M  V30 23 1 23 6
M  V30 24 1 1 24 CFG=1
M  V30 25 1 25 2
M  V30 26 1 26 3
M  V30 27 1 27 3
M  V30 28 1 28 4
M  V30 29 1 29 4
M  V30 30 1 30 4
M  V30 31 1 31 5
M  V30 32 1 32 6
M  V30 33 1 33 6
M  V30 34 1 34 7
M  V30 35 1 35 7
M  V30 36 1 36 8
M  V30 37 1 37 8
M  V30 38 1 38 10
M  V30 39 1 39 10
M  V30 40 1 40 10
M  V30 41 1 11 41 CFG=1
M  V30 42 1 42 12
M  V30 43 1 43 12
M  V30 44 1 44 14
M  V30 45 1 45 14
M  V30 46 1 46 14
M  V30 47 1 47 18
M  V30 48 1 48 20
M  V30 49 1 49 21
M  V30 50 1 50 21
M  V30 51 1 51 21
M  V30 52 1 52 22
M  V30 53 1 53 22
M  V30 54 1 54 22
M  V30 55 1 55 23
M  V30 56 1 56 18
M  V30 57 1 57 7
M  V30 END BOND
M  V30 END CTAB
M  END
>  <i_epik_Tot_Q>  (1) 
2

>  <i_epik_Tot_abs_Q>  (1) 
2

>  <i_i_glide_confnum>  (1) 
229

>  <i_i_glide_lignum>  (1) 
46

>  <i_i_glide_posenum>  (1) 
398

>  <i_i_glide_rotatable_bonds>  (1) 
8

>  <i_lp_mmshare_version>  (1) 
72125

>  <i_m_source_file_index>  (1) 
28

>  <i_f3d_flags>  (1) 
0

>  <num_sample>  (1) 
100

>  <b_lp_Chiralities_Consistent>  (1) 
1

>  <r_epik_Charging_Adjusted_Penalty>  (1) 
0.47954930221194114

>  <r_epik_Ionization_Penalty>  (1) 
0.082650424812652987

>  <r_epik_Ionization_Penalty_Charging>  (1) 
0.068869463259337155

>  <r_epik_Ionization_Penalty_Neutral>  (1) 
0.013780961553315832

>  <r_epik_State_Penalty>  (1) 
0.41067983895260396

>  <r_glide_ring_energy>  (1) 
0

>  <r_i_docking_score>  (1) 
-6.8742292592421848

>  <r_i_glide_ecoul>  (1) 
-11.373741970669293

>  <r_i_glide_eff_state_penalty>  (1) 
0.41067983895260396

>  <r_i_glide_einternal>  (1) 
11.275581606171659

>  <r_i_glide_emodel>  (1) 
-57.321480929282032

>  <r_i_glide_emodel_strain>  (1) 
1.1880257111166443

>  <r_i_glide_energy>  (1) 
-36.737403390148131

>  <r_i_glide_erotb>  (1) 
0.88107071462136088

>  <r_i_glide_esite>  (1) 
-0.18213927386584883

>  <r_i_glide_evdw>  (1) 
-25.363661419478834

>  <r_i_glide_gscore>  (1) 
-7.284909098194789

>  <r_i_glide_gscore_strain>  (1) 
0

>  <r_i_glide_hbond>  (1) 
-0.4799860677110534

>  <r_i_glide_ligand_efficiency>  (1) 
-0.29887953301052977

>  <r_i_glide_ligand_efficiency_ln>  (1) 
-1.6622509669494738

>  <r_i_glide_ligand_efficiency_sa>  (1) 
-0.84997363488210165

>  <r_i_glide_lipo>  (1) 
-1.7967496980022595

>  <r_i_glide_metal>  (1) 
-0

>  <r_i_glide_rewards>  (1) 
-2.7328604066626516

>  <r_lp_Energy>  (1) 
29.545608999999999

>  <r_lp_tautomer_probability>  (1) 
0.5

>  <s_epik_cmdline>  (1) 
J2VwaWtfcHl0aG9uJywgJy1waHQnLCAnMS4wJywgJy1waCcsICc3LjQnLCAnLXRuJywgJzgnLCAnLW1hJywgJzUwMCcsICctaW1hZScsICc8aW5maWxlLm1hZT4nLCAnLW9tYWUnLCAnPG91dGZpbGUubWFlPic=

>  <s_epik_input>  (1) 
Tz1DMVtDSF09W0NIXUMoXFtDQEhdMVtOSDJdKT1DKFtDSDNdKVxOKFtDSDNdKVtDSDJdL1tDSF09W0NIXVxbQ0BIXShbTkgyXSlbQ0gyXVtDSDJdW05IXUMoW0NIM10pKFtDSDNdKVtDSDNd

>  <s_glide_docking_method>  (1) 
confgen

>  <s_i_glide_gridfile>  (1) 
gpcr_drd2_6luq_protein_autoprepared_prepared

>  <s_lp_Force_Field>  (1) 
S-OPLS

>  <s_lp_Variant>  (1) 
DiffSBDD_27_num_sample_100-4

>  <s_m_source_file>  (1) 
generated__ligand_DiffSBDD_2026-05-06_prepared.sdf

>  <GenAI_Model>  (1) 
DiffSBDD

>  <Protein>  (1) 
generic_title2

$$$$
DiffSBDD_68_num_sample_100
     RDKit          3D

  0  0  0  0  0  0  0  0  0  0999 V3000
M  V30 BEGIN CTAB
M  V30 COUNTS 88 93 0 0 1
M  V30 BEGIN ATOM
M  V30 1 C 8.594222 5.364311 -16.735263 0
M  V30 2 C 6.334221 3.620204 -13.373112 0
M  V30 3 C 12.443834 8.969283 -7.283784 0
M  V30 4 C 9.271357 6.370931 -10.919586 0
M  V30 5 C 5.972646 -0.076517 -20.635552 0
M  V30 6 C 8.307260 1.526815 -17.757709 0 CFG=1
M  V30 7 O 7.424915 4.291779 -18.533779 0
M  V30 8 C 7.706482 1.341280 -14.753205 0
M  V30 9 O 5.034836 0.969395 -20.691669 0
M  V30 10 C 7.434748 4.843353 -10.055174 0
M  V30 11 C 8.634419 0.259513 -16.920267 0
M  V30 12 C 11.434809 8.867765 -6.220183 0
M  V30 13 C 10.851990 8.148393 -9.041053 0 CFG=2
M  V30 14 C 7.035339 1.273954 -18.658411 0 CFG=2
M  V30 15 C 8.365836 4.681415 -14.416699 0 CFG=1
M  V30 16 C 9.782094 8.038514 -8.012090 0 CFG=2
M  V30 17 O 5.468507 -1.190918 -19.936303 0
M  V30 18 C 10.074081 8.290068 -6.562105 0
M  V30 19 C 8.936340 4.351742 -21.594298 0
M  V30 20 C 7.265646 2.571627 -15.566893 0 CFG=1
M  V30 21 C 7.219610 5.829656 -12.434213 0 CFG=2
M  V30 22 C 5.976294 4.950391 -12.697500 0
M  V30 23 O 6.000677 0.684594 -17.887583 0
M  V30 24 O 8.134949 1.033213 -20.906710 0
M  V30 25 C 10.297578 6.787351 -8.697510 0 CFG=1
M  V30 26 C 8.013871 4.157441 -17.465336 0
M  V30 27 C 7.664278 2.167797 -21.635119 0 CFG=1
M  V30 28 C 8.003550 6.020001 -13.734094 0
M  V30 29 C 7.835160 0.077147 -15.609200 0
M  V30 30 C 7.075330 3.862831 -14.707379 0 CFG=1
M  V30 31 C 8.834700 3.070809 -21.982897 0
M  V30 32 O 6.963094 1.811432 -22.816115 0
M  V30 33 C 12.157290 8.624040 -8.558511 0
M  V30 34 C 8.198004 2.765603 -16.796967 0 CFG=2
M  V30 35 C 9.578258 1.778621 -18.617591 0
M  V30 36 O 7.771728 0.848319 -23.553070 0
M  V30 37 N 9.323960 6.125479 -9.505311 0
M  V30 38 S 11.834845 9.369307 -4.690281 0
M  V30 39 C 8.414423 5.311446 -9.031466 0
M  V30 40 O 9.214997 4.970106 -15.523694 0
M  V30 41 O 8.333747 4.969353 -7.865326 0
M  V30 42 C 8.171761 5.317360 -11.333607 0 CFG=1
M  V30 43 C 7.264471 0.418429 -19.947138 0 CFG=2
M  V30 44 H 9.343941 5.824802 -17.378908 0
M  V30 45 H 7.815389 6.106109 -16.559784 0
M  V30 46 H 6.956107 3.033824 -12.696116 0
M  V30 47 H 5.424203 3.041582 -13.522912 0
M  V30 48 H 13.436402 9.323025 -7.041116 0
M  V30 49 H 10.228535 6.193619 -11.411053 0
M  V30 50 H 8.942467 7.393640 -11.106975 0
M  V30 51 H 6.189465 -0.414331 -21.648880 0
M  V30 52 H 6.979341 1.120828 -13.971669 0
M  V30 53 H 8.634831 1.545123 -14.232033 0
M  V30 54 H 4.361052 0.687553 -21.307210 0
M  V30 55 H 6.504675 5.385020 -9.891918 0
M  V30 56 H 7.229287 3.776350 -10.022842 0
M  V30 57 H 8.519605 -0.640794 -17.524768 0
M  V30 58 H 9.693424 0.281148 -16.691672 0
M  V30 59 H 10.560780 8.609637 -9.981617 0
M  V30 60 H 6.587517 2.201352 -18.981813 0
M  V30 61 H 9.002450 4.093988 -13.758509 0
M  V30 62 H 8.811590 8.418562 -8.314105 0
M  V30 63 H 5.426444 -0.929955 -19.023515 0
M  V30 64 H 9.940460 7.354923 -6.015751 0
M  V30 65 H 9.792762 4.950558 -21.869662 0
M  V30 66 H 8.165003 4.816167 -20.996698 0
M  V30 67 H 6.275942 2.322743 -15.939530 0
M  V30 68 H 6.853308 6.805443 -12.106514 0
M  V30 69 H 5.414839 4.764962 -11.783030 0
M  V30 70 H 5.290820 5.499593 -13.343756 0
M  V30 71 H 5.807942 1.257328 -17.162006 0
M  V30 72 H 10.950949 6.140202 -8.114015 0
M  V30 73 H 6.983572 2.763434 -21.028751 0
M  V30 74 H 8.910334 6.569331 -13.491927 0
M  V30 75 H 7.426632 6.649235 -14.412746 0
M  V30 76 H 6.844986 -0.326941 -15.814238 0
M  V30 77 H 8.323104 -0.690657 -15.011452 0
M  V30 78 H 6.414896 4.513332 -15.283219 0
M  V30 79 H 9.620820 2.633550 -22.579208 0
M  V30 80 H 12.934517 8.712397 -9.304476 0
M  V30 81 H 9.192463 2.824786 -16.359079 0
M  V30 82 H 10.440102 2.034892 -17.999987 0
M  V30 83 H 9.875603 0.896028 -19.183248 0
M  V30 84 H 9.448616 2.597332 -19.321342 0
M  V30 85 H 8.415820 1.421299 -23.937220 0
M  V30 86 H 9.309842 8.969104 -6.186082 0
M  V30 87 H 8.701062 4.431423 -11.682975 0
M  V30 88 H 7.815734 -0.476286 -19.658077 0
M  V30 END ATOM
M  V30 BEGIN BOND
M  V30 1 1 9 5
M  V30 2 1 11 6
M  V30 3 1 12 3
M  V30 4 1 14 6
M  V30 5 1 16 13
M  V30 6 1 17 5
M  V30 7 1 18 12
M  V30 8 1 18 16
M  V30 9 1 20 8
M  V30 10 1 22 2
M  V30 11 1 22 21
M  V30 12 1 23 14
M  V30 13 1 25 13
M  V30 14 1 25 16
M  V30 15 1 26 1
M  V30 16 2 26 7
M  V30 17 1 27 24
M  V30 18 1 28 15
M  V30 19 1 28 21
M  V30 20 1 29 8
M  V30 21 1 29 11
M  V30 22 1 30 2
M  V30 23 1 30 15
M  V30 24 1 30 20
M  V30 25 2 31 19
M  V30 26 1 31 27
M  V30 27 1 32 27
M  V30 28 2 33 3
M  V30 29 1 33 13
M  V30 30 1 34 6
M  V30 31 1 34 20
M  V30 32 1 34 26
M  V30 33 1 6 35 CFG=3
M  V30 34 1 36 32
M  V30 35 1 37 4
M  V30 36 1 37 25
M  V30 37 2 38 12
M  V30 38 1 39 10
M  V30 39 1 39 37
M  V30 40 1 40 1
M  V30 41 1 40 15
M  V30 42 2 41 39
M  V30 43 1 42 4
M  V30 44 1 42 10
M  V30 45 1 42 21
M  V30 46 1 43 5
M  V30 47 1 43 14
M  V30 48 1 43 24
M  V30 49 1 44 1
M  V30 50 1 45 1
M  V30 51 1 46 2
M  V30 52 1 47 2
M  V30 53 1 48 3
M  V30 54 1 49 4
M  V30 55 1 50 4
M  V30 56 1 51 5
M  V30 57 1 52 8
M  V30 58 1 53 8
M  V30 59 1 54 9
M  V30 60 1 55 10
M  V30 61 1 56 10
M  V30 62 1 57 11
M  V30 63 1 58 11
M  V30 64 1 13 59 CFG=3
M  V30 65 1 14 60 CFG=3
M  V30 66 1 15 61 CFG=1
M  V30 67 1 16 62 CFG=3
M  V30 68 1 63 17
M  V30 69 1 64 18
M  V30 70 1 65 19
M  V30 71 1 66 19
M  V30 72 1 20 67 CFG=3
M  V30 73 1 21 68 CFG=1
M  V30 74 1 69 22
M  V30 75 1 70 22
M  V30 76 1 71 23
M  V30 77 1 25 72 CFG=1
M  V30 78 1 27 73 CFG=1
M  V30 79 1 74 28
M  V30 80 1 75 28
M  V30 81 1 76 29
M  V30 82 1 77 29
M  V30 83 1 30 78 CFG=3
M  V30 84 1 79 31
M  V30 85 1 80 33
M  V30 86 1 34 81 CFG=1
M  V30 87 1 82 35
M  V30 88 1 83 35
M  V30 89 1 84 35
M  V30 90 1 85 36
M  V30 91 1 86 18
M  V30 92 1 42 87 CFG=3
M  V30 93 1 43 88 CFG=1
M  V30 END BOND
M  V30 END CTAB
M  END
>  <i_epik_Tot_Q>  (1) 
0

>  <i_epik_Tot_abs_Q>  (1) 
0

>  <i_i_glide_confnum>  (1) 
1639

>  <i_i_glide_lignum>  (1) 
138

>  <i_i_glide_posenum>  (1) 
332

>  <i_i_glide_rotatable_bonds>  (1) 
13

>  <i_lp_mmshare_version>  (1) 
72125

>  <i_m_source_file_index>  (1) 
69

>  <i_f3d_flags>  (1) 
0

>  <num_sample>  (1) 
100

>  <b_lp_Chiralities_Consistent>  (1) 
1

>  <r_epik_Charging_Adjusted_Penalty>  (1) 
0

>  <r_epik_Ionization_Penalty>  (1) 
0.00032218278010154739

>  <r_epik_Ionization_Penalty_Charging>  (1) 
0

>  <r_epik_Ionization_Penalty_Neutral>  (1) 
0.00032218278010154739

>  <r_epik_State_Penalty>  (1) 
-0

>  <r_glide_ring_energy>  (1) 
0

>  <r_i_docking_score>  (1) 
-6.8675181449502682

>  <r_i_glide_ecoul>  (1) 
-5.6849958085119328

>  <r_i_glide_eff_state_penalty>  (1) 
-0

>  <r_i_glide_einternal>  (1) 
28.687505945469521

>  <r_i_glide_emodel>  (1) 
-53.580164613106234

>  <r_i_glide_emodel_strain>  (1) 
0.52979601424858913

>  <r_i_glide_energy>  (1) 
-51.052431793083208

>  <r_i_glide_erotb>  (1) 
0.36271052330308029

>  <r_i_glide_esite>  (1) 
-0.18528094134636947

>  <r_i_glide_evdw>  (1) 
-45.367435984571273

>  <r_i_glide_gscore>  (1) 
-6.8675181449502682

>  <r_i_glide_gscore_strain>  (1) 
0

>  <r_i_glide_hbond>  (1) 
-0.32000000000000001

>  <r_i_glide_ligand_efficiency>  (1) 
-0.15970972430116903

>  <r_i_glide_ligand_efficiency_ln>  (1) 
-1.4423922494486203

>  <r_i_glide_ligand_efficiency_sa>  (1) 
-0.55952673834161415

>  <r_i_glide_lipo>  (1) 
-1.8196149016350736

>  <r_i_glide_metal>  (1) 
-0

>  <r_i_glide_rewards>  (1) 
-1.7842116547665514

>  <r_lp_Energy>  (1) 
42.877758

>  <r_lp_tautomer_probability>  (1) 
1

>  <s_epik_Chemistry_Notes>  (1) 
This compound contains an acetal/aminal-like group ( X-CH(R)-Y where X, Y are N, S, or O) that may be acid/base labile, releasing an aldehyde.

>  <s_epik_cmdline>  (1) 
J2VwaWtfcHl0aG9uJywgJy1waHQnLCAnMS4wJywgJy1waCcsICc3LjQnLCAnLXRuJywgJzgnLCAnLW1hJywgJzUwMCcsICctaW1hZScsICc8aW5maWxlLm1hZT4nLCAnLW9tYWUnLCAnPG91dGZpbGUubWFlPic=

>  <s_epik_input>  (1) 
W0NIMl09W0NIXVtDQEBIXShPW09IXSlPW0NASF0oW0NIXShbT0hdKVtPSF0pW0NAQEhdKFtPSF0pW0NAXShbQ0gzXSkoW0NIMl1bQ0gyXVtDSDJdMSlbQ0BASF0oQyg9TylbQ0gyXU8yKVtDQEBIXTFbQ0BASF0oW0NAQEhdMjMpW0NIMl1bQ0gyXVtDQEhdKFtDSDJdMylbQ0BIXShbQ0gyXUM0PU8pW0NIMl1ONFtDQEBIXTVbQ0BIXShbQ0BIXTU2KVtDSF09QyhbU0hdKVtDSF09W0NIXTY=

>  <s_glide_docking_method>  (1) 
confgen

>  <s_i_glide_gridfile>  (1) 
gpcr_drd2_6luq_protein_autoprepared_prepared

>  <s_lp_Force_Field>  (1) 
S-OPLS

>  <s_lp_Variant>  (1) 
DiffSBDD_68_num_sample_100-2

>  <s_m_source_file>  (1) 
generated__ligand_DiffSBDD_2026-05-06_prepared.sdf

>  <GenAI_Model>  (1) 
DiffSBDD

>  <Protein>  (1) 
generic_title2

$$$$
DiffSBDD_21_num_sample_100
     RDKit          3D

  0  0  0  0  0  0  0  0  0  0999 V3000
M  V30 BEGIN CTAB
M  V30 COUNTS 68 72 0 0 1
M  V30 BEGIN ATOM
M  V30 1 C 6.234825 8.186169 -15.763943 0
M  V30 2 C 7.697627 5.058766 -13.537899 0
M  V30 3 C 11.681878 9.205690 -5.775377 0
M  V30 4 C 7.317169 5.408241 -17.635315 0 CFG=2
M  V30 5 C 9.435263 8.569134 -8.443758 0
M  V30 6 C 9.109624 6.204507 -11.895588 0
M  V30 7 C 8.372199 5.201327 -16.525690 0
M  V30 8 O 7.550753 2.600535 -13.825034 0
M  V30 9 C 11.034220 6.866186 -6.032105 0
M  V30 10 C 7.144025 4.072164 -18.410184 0
M  V30 11 C 6.812831 6.158273 -13.525209 0
M  V30 12 O 10.234724 6.210409 -11.112303 0
M  V30 13 C 8.327090 3.890503 -15.706921 0
M  V30 14 F 11.838899 10.445387 -6.293451 0
M  V30 15 C 10.690844 7.376985 -10.433550 0
M  V30 16 C 5.324788 7.210081 -19.274809 0
M  V30 17 C 8.222220 7.292640 -11.891484 0
M  V30 18 C 11.836707 7.679772 -3.881433 0
M  V30 19 F 5.431659 8.415226 -18.730027 0
M  V30 20 S 7.998793 6.569133 -18.852777 0
M  V30 21 C 5.574447 6.160907 -14.394212 0
M  V30 22 C 7.078081 7.265504 -12.690704 0
M  V30 23 O 9.697494 4.032756 -12.689835 0
M  V30 24 C 7.427764 3.855842 -14.459991 0 CFG=2
M  V30 25 F 12.146754 7.448160 -2.584247 0
M  V30 26 C 12.001186 8.965722 -4.423811 0
M  V30 27 C 6.620985 6.840101 -19.998376 0
M  V30 28 F 4.363092 7.286588 -20.194061 0
M  V30 29 C 4.908472 6.172788 -18.216967 0
M  V30 30 C 11.352301 6.633755 -4.683814 0
M  V30 31 C 10.869143 8.410230 -8.035833 0 CFG=1
M  V30 32 C 5.940046 5.889486 -17.073073 0 CFG=2
M  V30 33 C 5.673986 6.790593 -15.809659 0 CFG=2
M  V30 34 C 11.199916 8.153774 -6.593209 0
M  V30 35 C 10.231620 7.407220 -8.987535 0 CFG=1
M  V30 36 C 8.844376 5.085130 -12.707865 0
M  V30 37 H 7.066758 8.303969 -15.076601 0
M  V30 38 H 6.634591 8.510389 -16.691548 0
M  V30 39 H 5.460933 8.905319 -15.495910 0
M  V30 40 H 9.174111 9.349793 -9.156748 0
M  V30 41 H 8.670975 8.346012 -7.701668 0
M  V30 42 H 8.406512 6.068168 -15.867699 0
M  V30 43 H 9.346211 5.195568 -17.016119 0
M  V30 44 H 7.104159 2.646538 -12.993932 0
M  V30 45 H 10.663692 6.056180 -6.636861 0
M  V30 46 H 6.660414 3.292322 -17.820335 0
M  V30 47 H 6.536160 4.167518 -19.305998 0
M  V30 48 H 8.110307 3.686800 -18.735937 0
M  V30 49 H 9.348054 3.770789 -15.380000 0
M  V30 50 H 8.150984 3.007358 -16.314353 0
M  V30 51 H 11.780156 7.309148 -10.419568 0
M  V30 52 H 10.474309 8.315624 -10.945647 0
M  V30 53 H 8.405011 8.149227 -11.261457 0
M  V30 54 H 5.009850 5.233183 -14.352997 0
M  V30 55 H 4.958151 6.835348 -13.814702 0
M  V30 56 H 6.398557 8.097502 -12.666052 0
M  V30 57 H 10.589901 4.276967 -12.491747 0
M  V30 58 H 6.403510 3.827174 -14.805533 0
M  V30 59 H 12.375061 9.767189 -3.804775 0
M  V30 60 H 6.904393 7.633979 -20.688225 0
M  V30 61 H 6.469368 5.946758 -20.603201 0
M  V30 62 H 3.934242 6.465070 -17.822360 0
M  V30 63 H 4.700725 5.252781 -18.753239 0
M  V30 64 H 11.223946 5.649927 -4.264352 0
M  V30 65 H 11.579746 9.109704 -8.468268 0
M  V30 66 H 5.716951 4.969306 -16.579356 0
M  V30 67 H 4.622348 7.019796 -15.943872 0
M  V30 68 H 9.975042 6.428800 -8.593245 0
M  V30 END ATOM
M  V30 BEGIN BOND
M  V30 1 1 7 4
M  V30 2 1 4 10 CFG=3
M  V30 3 2 11 2
M  V30 4 1 12 6
M  V30 5 1 13 7
M  V30 6 1 14 3
M  V30 7 1 15 12
M  V30 8 1 17 6
M  V30 9 1 19 16
M  V30 10 1 20 4
M  V30 11 1 21 11
M  V30 12 1 22 11
M  V30 13 2 22 17
M  V30 14 1 24 2
M  V30 15 1 24 8
M  V30 16 1 24 13
M  V30 17 1 25 18
M  V30 18 1 26 3
M  V30 19 2 26 18
M  V30 20 1 27 16
M  V30 21 1 27 20
M  V30 22 1 28 16
M  V30 23 1 29 16
M  V30 24 2 30 9
M  V30 25 1 30 18
M  V30 26 1 31 5
M  V30 27 1 32 4
M  V30 28 1 32 29
M  V30 29 1 33 1
M  V30 30 1 33 21
M  V30 31 1 33 32
M  V30 32 2 34 3
M  V30 33 1 34 9
M  V30 34 1 34 31
M  V30 35 1 35 5
M  V30 36 1 35 15
M  V30 37 1 35 31
M  V30 38 1 36 2
M  V30 39 2 36 6
M  V30 40 1 36 23
M  V30 41 1 37 1
M  V30 42 1 38 1
M  V30 43 1 39 1
M  V30 44 1 40 5
M  V30 45 1 41 5
M  V30 46 1 42 7
M  V30 47 1 43 7
M  V30 48 1 44 8
M  V30 49 1 45 9
M  V30 50 1 46 10
M  V30 51 1 47 10
M  V30 52 1 48 10
M  V30 53 1 49 13
M  V30 54 1 50 13
M  V30 55 1 51 15
M  V30 56 1 52 15
M  V30 57 1 53 17
M  V30 58 1 54 21
M  V30 59 1 55 21
M  V30 60 1 56 22
M  V30 61 1 57 23
M  V30 62 1 24 58 CFG=3
M  V30 63 1 59 26
M  V30 64 1 60 27
M  V30 65 1 61 27
M  V30 66 1 62 29
M  V30 67 1 63 29
M  V30 68 1 64 30
M  V30 69 1 31 65 CFG=3
M  V30 70 1 32 66 CFG=1
M  V30 71 1 33 67 CFG=3
M  V30 72 1 35 68 CFG=1
M  V30 END BOND
M  V30 END CTAB
M  END
>  <i_epik_Tot_Q>  (1) 
0

>  <i_epik_Tot_abs_Q>  (1) 
0

>  <i_i_glide_confnum>  (1) 
35

>  <i_i_glide_lignum>  (1) 
34

>  <i_i_glide_posenum>  (1) 
152

>  <i_i_glide_rotatable_bonds>  (1) 
6

>  <i_lp_mmshare_version>  (1) 
72125

>  <i_m_source_file_index>  (1) 
22

>  <i_f3d_flags>  (1) 
0

>  <num_sample>  (1) 
100

>  <b_lp_Chiralities_Consistent>  (1) 
1

>  <r_epik_Charging_Adjusted_Penalty>  (1) 
0

>  <r_epik_Ionization_Penalty>  (1) 
0.0009051571753108589

>  <r_epik_Ionization_Penalty_Charging>  (1) 
0

>  <r_epik_Ionization_Penalty_Neutral>  (1) 
0.0009051571753108589

>  <r_epik_State_Penalty>  (1) 
-0

>  <r_glide_ring_energy>  (1) 
0

>  <r_i_docking_score>  (1) 
-6.8650588590366084

>  <r_i_glide_ecoul>  (1) 
-1.726959250713866

>  <r_i_glide_eff_state_penalty>  (1) 
-0

>  <r_i_glide_einternal>  (1) 
5.3843803565941162

>  <r_i_glide_emodel>  (1) 
-38.671078457777931

>  <r_i_glide_emodel_strain>  (1) 
3.3984695828904137

>  <r_i_glide_energy>  (1) 
-24.732117959977423

>  <r_i_glide_erotb>  (1) 
0.29906164395455315

>  <r_i_glide_esite>  (1) 
0

>  <r_i_glide_evdw>  (1) 
-23.005158709263558

>  <r_i_glide_gscore>  (1) 
-6.8650588590366084

>  <r_i_glide_gscore_strain>  (1) 
0

>  <r_i_glide_hbond>  (1) 
-0.19107273323645732

>  <r_i_glide_ligand_efficiency>  (1) 
-0.19069607941768357

>  <r_i_glide_ligand_efficiency_ln>  (1) 
-1.4977703705854004

>  <r_i_glide_ligand_efficiency_sa>  (1) 
-0.62966458088662325

>  <r_i_glide_lipo>  (1) 
-3.794114647949741

>  <r_i_glide_metal>  (1) 
-0

>  <r_i_glide_rewards>  (1) 
-1.7696312987347049

>  <r_lp_Energy>  (1) 
74.349186000000003

>  <r_lp_tautomer_probability>  (1) 
1

>  <s_epik_cmdline>  (1) 
J2VwaWtfcHl0aG9uJywgJy1waHQnLCAnMS4wJywgJy1waCcsICc3LjQnLCAnLXRuJywgJzgnLCAnLW1hJywgJzUwMCcsICctaW1hZScsICc8aW5maWxlLm1hZT4nLCAnLW9tYWUnLCAnPG91dGZpbGUubWFlPic=

>  <s_epik_input>  (1) 
UzFbQ0gyXUMoRikoRilbQ0gyXVtDQEhdKFtDQEBdMTJbQ0gzXSlbQ0BIXShbQ0gzXSlbQ0gyXWMzYyhbQ0BIXShbT0hdKVtDSDJdW0NIMl0yKWMoW09IXSljKFtjSF1bY0hdMylPW0NIMl1bQ0BASF00W0NIMl1bQ0hdNGM1W2NIXVtjSF1jKEYpW2NIXWM1Rg==

>  <s_glide_docking_method>  (1) 
confgen

>  <s_i_glide_gridfile>  (1) 
gpcr_drd2_6luq_protein_autoprepared_prepared

>  <s_lp_Force_Field>  (1) 
S-OPLS

>  <s_lp_Variant>  (1) 
DiffSBDD_21_num_sample_100-2

>  <s_m_source_file>  (1) 
generated__ligand_DiffSBDD_2026-05-06_prepared.sdf

>  <GenAI_Model>  (1) 
DiffSBDD

>  <Protein>  (1) 
generic_title2

$$$$
DiffSBDD_22_num_sample_100
     RDKit          3D

  0  0  0  0  0  0  0  0  0  0999 V3000
M  V30 BEGIN CTAB
M  V30 COUNTS 46 48 0 0 1
M  V30 BEGIN ATOM
M  V30 1 C 6.634835 7.281853 -14.928777 0
M  V30 2 C 6.593819 5.231376 -17.990117 0
M  V30 3 C 7.278049 6.004358 -12.950476 0
M  V30 4 C 11.456963 8.503782 -5.263738 0
M  V30 5 O 6.634837 4.042346 -11.046025 0
M  V30 6 C 5.191496 6.600399 -19.190099 0
M  V30 7 N 6.134017 6.139485 -17.064046 0
M  V30 8 C 8.122160 4.909914 -9.372103 0
M  V30 9 C 6.794510 4.841601 -15.046874 0
M  V30 10 C 7.420236 4.936794 -10.750083 0
M  V30 11 O 6.305726 4.767431 -20.239971 0 CHG=-1
M  V30 12 C 9.182470 7.470272 -6.693804 0
M  V30 13 O 12.399973 8.969304 -7.409481 0
M  V30 14 N 8.634850 6.169301 -8.794550 0 CHG=1
M  V30 15 N 7.684472 5.973169 -11.574619 0
M  V30 16 C 8.760829 6.116062 -7.313361 0
M  V30 17 C 10.213812 8.067394 -8.883240 0
M  V30 18 C 9.899128 6.658273 -9.393496 0
M  V30 19 C 7.034210 7.240534 -13.573339 0
M  V30 20 O 7.399960 4.328282 -17.745151 0
M  V30 21 C 11.434840 8.523579 -6.795207 0
M  V30 22 C 6.530381 6.082492 -15.675083 0
M  V30 23 S 5.045176 7.369306 -17.646817 0
M  V30 24 N 10.327393 8.043054 -7.421145 0
M  V30 25 C 7.154199 4.801027 -13.693566 0
M  V30 26 C 6.000005 5.518038 -19.285560 0
M  V30 27 H 6.434374 8.232686 -15.400178 0
M  V30 28 H 10.634836 9.085694 -4.853491 0
M  V30 29 H 11.431282 7.486241 -4.872124 0
M  V30 30 H 12.376166 8.969339 -4.905019 0
M  V30 31 H 4.638848 7.006832 -20.023555 0
M  V30 32 H 7.434834 4.444730 -8.668343 0
M  V30 33 H 8.965993 4.224048 -9.455544 0
M  V30 34 H 6.703007 3.918402 -15.593508 0
M  V30 35 H 8.356712 8.181836 -6.732439 0
M  V30 36 H 9.373952 7.280482 -5.641571 0
M  V30 37 H 8.186254 6.771246 -11.218159 0
M  V30 38 H 7.834854 5.769304 -6.854605 0
M  V30 39 H 9.517253 5.369303 -7.073780 0
M  V30 40 H 9.414167 8.756172 -9.159601 0
M  V30 41 H 11.111940 8.432934 -9.383206 0
M  V30 42 H 10.696479 5.981748 -9.091668 0
M  V30 43 H 9.874151 6.660538 -10.481109 0
M  V30 44 H 7.137038 8.156582 -13.011021 0
M  V30 45 H 7.355585 3.847314 -13.233072 0
M  V30 46 H 7.910111 6.874745 -9.000513 0
M  V30 END ATOM
M  V30 BEGIN BOND
M  V30 1 1 7 2
M  V30 2 2 10 5
M  V30 3 1 10 8
M  V30 4 1 14 8
M  V30 5 1 15 3
M  V30 6 1 15 10
M  V30 7 1 16 12
M  V30 8 1 16 14
M  V30 9 1 18 14
M  V30 10 1 18 17
M  V30 11 2 19 1
M  V30 12 1 19 3
M  V30 13 2 20 2
M  V30 14 1 21 4
M  V30 15 2 21 13
M  V30 16 1 22 1
M  V30 17 1 22 7
M  V30 18 2 22 9
M  V30 19 1 23 6
M  V30 20 1 23 7
M  V30 21 1 24 12
M  V30 22 1 24 17
M  V30 23 1 24 21
M  V30 24 2 25 3
M  V30 25 1 25 9
M  V30 26 1 26 2
M  V30 27 2 26 6
M  V30 28 1 26 11
M  V30 29 1 27 1
M  V30 30 1 28 4
M  V30 31 1 29 4
M  V30 32 1 30 4
M  V30 33 1 31 6
M  V30 34 1 32 8
M  V30 35 1 33 8
M  V30 36 1 34 9
M  V30 37 1 35 12
M  V30 38 1 36 12
M  V30 39 1 37 15
M  V30 40 1 38 16
M  V30 41 1 39 16
M  V30 42 1 40 17
M  V30 43 1 41 17
M  V30 44 1 42 18
M  V30 45 1 43 18
M  V30 46 1 44 19
M  V30 47 1 45 25
M  V30 48 1 46 14
M  V30 END BOND
M  V30 END CTAB
M  END
>  <i_epik_Tot_Q>  (1) 
0

>  <i_epik_Tot_abs_Q>  (1) 
2

>  <i_i_glide_confnum>  (1) 
39

>  <i_i_glide_lignum>  (1) 
35

>  <i_i_glide_posenum>  (1) 
239

>  <i_i_glide_rotatable_bonds>  (1) 
6

>  <i_lp_mmshare_version>  (1) 
72125

>  <i_m_source_file_index>  (1) 
23

>  <i_f3d_flags>  (1) 
0

>  <num_sample>  (1) 
100

>  <b_lp_Chiralities_Consistent>  (1) 
1

>  <r_epik_Charging_Adjusted_Penalty>  (1) 
0.707433222311869

>  <r_epik_Ionization_Penalty>  (1) 
0.35375602504973802

>  <r_epik_Ionization_Penalty_Charging>  (1) 
0.35374474494757885

>  <r_epik_Ionization_Penalty_Neutral>  (1) 
1.1280102159195983e-05

>  <r_epik_State_Penalty>  (1) 
0.35368847736429015

>  <r_glide_ring_energy>  (1) 
0

>  <r_i_docking_score>  (1) 
-6.8645996548934045

>  <r_i_glide_ecoul>  (1) 
-8.809154822424853

>  <r_i_glide_eff_state_penalty>  (1) 
0.35368847736429015

>  <r_i_glide_einternal>  (1) 
5.714062347307614

>  <r_i_glide_emodel>  (1) 
-61.133267858006363

>  <r_i_glide_emodel_strain>  (1) 
2.949699525744947

>  <r_i_glide_energy>  (1) 
-42.22221382355368

>  <r_i_glide_erotb>  (1) 
0.47811857986973644

>  <r_i_glide_esite>  (1) 
-0.2406931475859263

>  <r_i_glide_evdw>  (1) 
-33.413059001128829

>  <r_i_glide_gscore>  (1) 
-7.2182881322576948

>  <r_i_glide_gscore_strain>  (1) 
0

>  <r_i_glide_hbond>  (1) 
-0.16268563530393323

>  <r_i_glide_ligand_efficiency>  (1) 
-0.26402306364974631

>  <r_i_glide_ligand_efficiency_ln>  (1) 
-1.6121287043630605

>  <r_i_glide_ligand_efficiency_sa>  (1) 
-0.78216728803124258

>  <r_i_glide_lipo>  (1) 
-1.5071192855879758

>  <r_i_glide_metal>  (1) 
-0

>  <r_i_glide_rewards>  (1) 
-2.7938824702294265

>  <r_lp_Energy>  (1) 
50.884591999999998

>  <r_lp_tautomer_probability>  (1) 
1

>  <s_epik_cmdline>  (1) 
J2VwaWtfcHl0aG9uJywgJy1waHQnLCAnMS4wJywgJy1waCcsICc3LjQnLCAnLXRuJywgJzgnLCAnLW1hJywgJzUwMCcsICctaW1hZScsICc8aW5maWxlLm1hZT4nLCAnLW9tYWUnLCAnPG91dGZpbGUubWFlPic=

>  <s_epik_input>  (1) 
Tz1DMVtDSDJdU04oQzE9TyljKFtjSF1bY0hdMilbY0hdW2NIXWMyW05IXUMoPU8pW0NIMl1OM1tDSDJdW0NIMl1OKFtDSDJdW0NIMl0zKUMoPU8pW0NIM10=

>  <s_glide_docking_method>  (1) 
confgen

>  <s_i_glide_gridfile>  (1) 
gpcr_drd2_6luq_protein_autoprepared_prepared

>  <s_lp_Force_Field>  (1) 
S-OPLS

>  <s_lp_Variant>  (1) 
DiffSBDD_22_num_sample_100-1

>  <s_m_source_file>  (1) 
generated__ligand_DiffSBDD_2026-05-06_prepared.sdf

>  <GenAI_Model>  (1) 
DiffSBDD

>  <Protein>  (1) 
generic_title2

$$$$
DiffSBDD_83_num_sample_100
     RDKit          3D

  0  0  0  0  0  0  0  0  0  0999 V3000
M  V30 BEGIN CTAB
M  V30 COUNTS 49 53 0 0 1
M  V30 BEGIN ATOM
M  V30 1 C 7.657854 5.748918 -13.237067 0
M  V30 2 C 11.134166 10.167503 -4.802625 0
M  V30 3 C 11.249391 7.737925 -5.084553 0 CFG=1
M  V30 4 C 10.238589 6.430274 -7.680326 0
M  V30 5 C 11.559690 8.203502 -6.500893 0 CFG=2
M  V30 6 N 8.634898 6.130266 -9.822673 0 CHG=1
M  V30 7 C 12.092872 8.089973 -3.883560 0
M  V30 8 C 7.747829 3.402397 -13.911123 0
M  V30 9 C 10.634085 8.995956 -5.619101 0 CFG=2
M  V30 10 C 11.035612 7.490280 -7.691566 0
M  V30 11 C 7.318044 2.279936 -14.837224 0
M  V30 12 C 8.957283 6.587781 -11.217835 0 CFG=1
M  V30 13 C 9.046708 4.169545 -11.997090 0
M  V30 14 C 11.260035 7.827520 -9.000436 0
M  V30 15 C 7.258663 4.711935 -14.105067 0
M  V30 16 C 12.288910 9.608936 -3.942939 0
M  V30 17 C 10.444995 7.064285 -11.253512 0
M  V30 18 C 8.634869 3.135663 -12.854098 0
M  V30 19 C 10.625920 6.971015 -9.783430 0
M  V30 20 C 7.848720 2.425029 -16.269706 0
M  V30 21 O 7.335499 1.379758 -17.069232 0
M  V30 22 C 9.858443 5.843672 -9.085282 0 CFG=1
M  V30 23 C 8.553027 5.478543 -12.179047 0
M  V30 24 H 7.273583 6.748580 -13.380085 0
M  V30 25 H 11.460980 10.969683 -5.463262 0
M  V30 26 H 10.333714 10.568954 -4.179392 0
M  V30 27 H 10.602191 6.874868 -4.949149 0
M  V30 28 H 9.885808 5.954133 -6.778283 0
M  V30 29 H 12.534874 8.647502 -6.691644 0
M  V30 30 H 8.071758 6.890374 -9.415698 0
M  V30 31 H 13.034779 7.543792 -3.884013 0
M  V30 32 H 11.555321 7.812508 -2.976460 0
M  V30 33 H 9.580147 8.970015 -5.892136 0
M  V30 34 H 6.234899 2.248847 -14.841781 0
M  V30 35 H 7.640885 1.323417 -14.423393 0
M  V30 36 H 8.311984 7.447544 -11.409085 0
M  V30 37 H 9.737793 3.954438 -11.195165 0
M  V30 38 H 11.801306 8.700682 -9.336320 0
M  V30 39 H 6.573863 4.919443 -14.914706 0
M  V30 40 H 13.243798 9.805527 -4.431884 0
M  V30 41 H 12.327517 10.049336 -2.945326 0
M  V30 42 H 11.093923 6.395640 -11.819578 0
M  V30 43 H 10.542393 8.088199 -11.604849 0
M  V30 44 H 9.011242 2.133678 -12.703547 0
M  V30 45 H 8.938306 2.394164 -16.291106 0
M  V30 46 H 7.542927 3.377696 -16.702370 0
M  V30 47 H 7.603665 0.548713 -16.704556 0
M  V30 48 H 10.234892 4.840754 -9.257229 0
M  V30 49 H 8.038479 5.317162 -9.861139 0
M  V30 END ATOM
M  V30 BEGIN BOND
M  V30 1 1 5 3
M  V30 2 1 7 3
M  V30 3 1 9 2
M  V30 4 1 9 3
M  V30 5 1 9 5
M  V30 6 2 10 4
M  V30 7 1 10 5
M  V30 8 1 11 8
M  V30 9 1 12 6
M  V30 10 1 14 10
M  V30 11 2 15 1
M  V30 12 1 15 8
M  V30 13 1 16 2
M  V30 14 1 16 7
M  V30 15 1 17 12
M  V30 16 2 18 8
M  V30 17 1 18 13
M  V30 18 2 19 14
M  V30 19 1 19 17
M  V30 20 1 20 11
M  V30 21 1 21 20
M  V30 22 1 22 4
M  V30 23 1 22 6
M  V30 24 1 22 19
M  V30 25 1 23 1
M  V30 26 1 23 12
M  V30 27 2 23 13
M  V30 28 1 24 1
M  V30 29 1 25 2
M  V30 30 1 26 2
M  V30 31 1 3 27 CFG=3
M  V30 32 1 28 4
M  V30 33 1 5 29 CFG=3
M  V30 34 1 30 6
M  V30 35 1 31 7
M  V30 36 1 32 7
M  V30 37 1 9 33 CFG=3
M  V30 38 1 34 11
M  V30 39 1 35 11
M  V30 40 1 12 36 CFG=3
M  V30 41 1 37 13
M  V30 42 1 38 14
M  V30 43 1 39 15
M  V30 44 1 40 16
M  V30 45 1 41 16
M  V30 46 1 42 17
M  V30 47 1 43 17
M  V30 48 1 44 18
M  V30 49 1 45 20
M  V30 50 1 46 20
M  V30 51 1 47 21
M  V30 52 1 22 48 CFG=1
M  V30 53 1 49 6
M  V30 END BOND
M  V30 END CTAB
M  END
>  <i_epik_Tot_Q>  (1) 
1

>  <i_epik_Tot_abs_Q>  (1) 
1

>  <i_i_glide_confnum>  (1) 
218

>  <i_i_glide_lignum>  (1) 
170

>  <i_i_glide_posenum>  (1) 
164

>  <i_i_glide_rotatable_bonds>  (1) 
5

>  <i_lp_mmshare_version>  (1) 
72125

>  <i_m_source_file_index>  (1) 
84

>  <i_f3d_flags>  (1) 
0

>  <num_sample>  (1) 
100

>  <b_lp_Chiralities_Consistent>  (1) 
1

>  <r_epik_Charging_Adjusted_Penalty>  (1) 
0.3591125196210796

>  <r_epik_Ionization_Penalty>  (1) 
0.17955633890062345

>  <r_epik_Ionization_Penalty_Charging>  (1) 
0.1795562598105398

>  <r_epik_Ionization_Penalty_Neutral>  (1) 
7.9090083639956194e-08

>  <r_epik_State_Penalty>  (1) 
0.1795562598105398

>  <r_glide_ring_energy>  (1) 
0

>  <r_i_docking_score>  (1) 
-6.8583921606481262

>  <r_i_glide_ecoul>  (1) 
-7.7610869748698459

>  <r_i_glide_eff_state_penalty>  (1) 
0.1795562598105398

>  <r_i_glide_einternal>  (1) 
0.92413077887964545

>  <r_i_glide_emodel>  (1) 
-52.783536673783736

>  <r_i_glide_emodel_strain>  (1) 
0.029919290878694937

>  <r_i_glide_energy>  (1) 
-35.022062095523779

>  <r_i_glide_erotb>  (1) 
0.77787292059137758

>  <r_i_glide_esite>  (1) 
-0.093806923748325999

>  <r_i_glide_evdw>  (1) 
-27.260975120653931

>  <r_i_glide_gscore>  (1) 
-7.0379484204586662

>  <r_i_glide_gscore_strain>  (1) 
0

>  <r_i_glide_hbond>  (1) 
-0.17684022477471323

>  <r_i_glide_ligand_efficiency>  (1) 
-0.29819096350644025

>  <r_i_glide_ligand_efficiency_ln>  (1) 
-1.6584214129065598

>  <r_i_glide_ligand_efficiency_sa>  (1) 
-0.84801543480608865

>  <r_i_glide_lipo>  (1) 
-2.8119224129911022

>  <r_i_glide_metal>  (1) 
-0

>  <r_i_glide_rewards>  (1) 
-2.2060399772727286

>  <r_lp_Energy>  (1) 
32.732737999999998

>  <s_epik_cmdline>  (1) 
J2VwaWtfcHl0aG9uJywgJy1waHQnLCAnMS4wJywgJy1waCcsICc3LjQnLCAnLXRuJywgJzgnLCAnLW1hJywgJzUwMCcsICctaW1hZScsICc8aW5maWxlLm1hZT4nLCAnLW9tYWUnLCAnPG91dGZpbGUubWFlPic=

>  <s_epik_input>  (1) 
W09IXVtDSDJdW0NIMl1jMVtjSF1bY0hdYyhbY0hdW2NIXTEpW0NASF0oW0NIMl0yKVtOSF1bQ0BIXShDMjMpW0NIXT1DKFtDSF09MylbQ0BIXTRbQ0BASF0oW0NAQEhdNDUpW0NIMl1bQ0gyXVtDSDJdNQ==

>  <s_glide_docking_method>  (1) 
confgen

>  <s_i_glide_gridfile>  (1) 
gpcr_drd2_6luq_protein_autoprepared_prepared

>  <s_lp_Force_Field>  (1) 
S-OPLS

>  <s_lp_Variant>  (1) 
DiffSBDD_83_num_sample_100-2

>  <s_m_source_file>  (1) 
generated__ligand_DiffSBDD_2026-05-06_prepared.sdf

>  <GenAI_Model>  (1) 
DiffSBDD

>  <Protein>  (1) 
generic_title2

$$$$
DiffSBDD_75_num_sample_100
     RDKit          3D

  0  0  0  0  0  0  0  0  0  0999 V3000
M  V30 BEGIN CTAB
M  V30 COUNTS 76 81 0 0 1
M  V30 BEGIN ATOM
M  V30 1 C 7.435089 2.322018 -14.136947 0
M  V30 2 C 7.758593 2.916006 -15.510904 0
M  V30 3 C 11.885682 4.285113 -17.089314 0
M  V30 4 C 14.940594 0.981285 -19.280372 0 CFG=2
M  V30 5 F 5.690836 6.915239 -18.546889 0
M  V30 6 C 6.426986 3.076444 -13.262373 0
M  V30 7 C 6.732671 5.133064 -14.785761 0 CFG=1
M  V30 8 N 8.227640 4.965448 -16.842362 0
M  V30 9 O 16.464658 4.569079 -18.408925 0 CHG=-1
M  V30 10 C 6.538170 4.624217 -13.324715 0 CFG=2
M  V30 11 C 9.207388 6.102862 -9.921331 0 CFG=1
M  V30 12 N 15.506369 5.127650 -17.882713 0 CHG=1
M  V30 13 C 12.505181 1.069164 -18.763679 0
M  V30 14 O 15.540568 6.257328 -17.405913 0
M  V30 15 C 6.707904 6.669270 -14.957580 0
M  V30 16 C 14.205305 4.391411 -17.802846 0
M  V30 17 C 9.226336 4.814913 -10.713384 0 CFG=1
M  V30 18 C 13.537087 0.680328 -19.816356 0
M  V30 19 C 7.997871 5.186945 -9.939175 0 CFG=2
M  V30 20 C 9.497467 5.191051 -17.308943 0
M  V30 21 N 15.102708 2.406191 -18.995891 0
M  V30 22 C 5.979633 7.113135 -16.249966 0
M  V30 23 N 7.450282 5.223344 -12.292409 0 CFG=2 CHG=1
M  V30 24 C 8.850660 4.720790 -12.174240 0
M  V30 25 C 10.038674 6.330905 -8.676705 0
M  V30 26 O 7.959551 1.280522 -13.752041 0
M  V30 27 C 7.063773 5.235997 -17.703572 0
M  V30 28 O 9.034867 7.272547 -10.691667 0
M  V30 29 C 6.607561 6.699545 -17.604022 0 CFG=1
M  V30 30 O 9.712896 5.629603 -18.439099 0
M  V30 31 O 16.019409 -0.872655 -20.461306 0
M  V30 32 C 6.856250 5.266553 -10.927464 0
M  V30 33 C 12.762319 2.456474 -18.206120 0
M  V30 34 C 13.098772 4.993748 -17.169738 0
M  V30 35 N 11.710179 3.042954 -17.593672 0
M  V30 36 C 10.688149 4.889167 -16.369617 0
M  V30 37 C 16.044881 0.524835 -20.255383 0
M  V30 38 C 14.038340 3.073962 -18.341832 0
M  V30 39 C 7.940253 4.450744 -15.476700 0 CFG=2
M  V30 40 H 6.947758 2.645979 -16.187576 0
M  V30 41 H 8.654355 2.433723 -15.901100 0
M  V30 42 H 15.079359 0.446865 -18.338687 0
M  V30 43 H 5.435076 2.776628 -13.594672 0
M  V30 44 H 6.511296 2.719456 -12.237821 0
M  V30 45 H 5.835410 4.774151 -15.286251 0
M  V30 46 H 5.549248 4.992953 -13.043942 0
M  V30 47 H 12.528309 0.361692 -17.934746 0
M  V30 48 H 11.503211 1.022262 -19.192050 0
M  V30 49 H 7.717036 7.076770 -14.912914 0
M  V30 50 H 6.173150 7.117097 -14.118122 0
M  V30 51 H 9.834839 4.000121 -10.327249 0
M  V30 52 H 13.364504 1.247133 -20.732525 0
M  V30 53 H 13.423531 -0.373249 -20.071835 0
M  V30 54 H 7.778120 4.664173 -9.010083 0
M  V30 55 H 16.028515 2.818597 -19.013622 0
M  V30 56 H 5.874364 8.199717 -16.240491 0
M  V30 57 H 4.960269 6.727111 -16.211451 0
M  V30 58 H 8.959462 3.680498 -12.467292 0
M  V30 59 H 9.539489 5.317542 -12.774492 0
M  V30 60 H 10.171630 5.399601 -8.125043 0
M  V30 61 H 11.023353 6.715102 -8.944933 0
M  V30 62 H 9.547960 7.053546 -8.023172 0
M  V30 63 H 7.314891 5.013050 -18.742243 0
M  V30 64 H 6.235273 4.569518 -17.489249 0
M  V30 65 H 8.334120 7.768975 -10.256600 0
M  V30 66 H 7.434587 7.345532 -17.891574 0
M  V30 67 H 16.198701 -1.326142 -19.646278 0
M  V30 68 H 6.265318 6.169369 -10.777855 0
M  V30 69 H 6.199824 4.411758 -10.757204 0
M  V30 70 H 13.183078 5.981156 -16.740419 0
M  V30 71 H 10.482551 4.169300 -15.594206 0
M  V30 72 H 10.978301 5.812121 -15.866563 0
M  V30 73 H 17.029854 0.792217 -19.871615 0
M  V30 74 H 15.931839 1.023948 -21.219672 0
M  V30 75 H 8.746241 4.704004 -14.803035 0
M  V30 76 H 7.556346 6.200952 -12.527372 0
M  V30 END ATOM
M  V30 BEGIN BOND
M  V30 1 1 2 1
M  V30 2 1 6 1
M  V30 3 1 10 6
M  V30 4 1 10 7
M  V30 5 1 12 9
M  V30 6 2 14 12
M  V30 7 1 15 7
M  V30 8 1 16 12
M  V30 9 1 17 11
M  V30 10 1 18 4
M  V30 11 1 18 13
M  V30 12 1 19 11
M  V30 13 1 19 17
M  V30 14 1 20 8
M  V30 15 1 21 4
M  V30 16 1 22 15
M  V30 17 1 23 10
M  V30 18 1 24 17
M  V30 19 1 24 23
M  V30 20 1 25 11
M  V30 21 2 26 1
M  V30 22 1 27 8
M  V30 23 1 11 28 CFG=3
M  V30 24 1 29 5
M  V30 25 1 29 22
M  V30 26 1 29 27
M  V30 27 2 30 20
M  V30 28 1 32 19
M  V30 29 1 32 23
M  V30 30 1 33 13
M  V30 31 2 34 3
M  V30 32 1 34 16
M  V30 33 1 35 3
M  V30 34 2 35 33
M  V30 35 1 36 3
M  V30 36 1 36 20
M  V30 37 1 37 4
M  V30 38 1 37 31
M  V30 39 2 38 16
M  V30 40 1 38 21
M  V30 41 1 38 33
M  V30 42 1 39 2
M  V30 43 1 39 7
M  V30 44 1 39 8
M  V30 45 1 40 2
M  V30 46 1 41 2
M  V30 47 1 4 42 CFG=1
M  V30 48 1 43 6
M  V30 49 1 44 6
M  V30 50 1 7 45 CFG=3
M  V30 51 1 10 46 CFG=1
M  V30 52 1 47 13
M  V30 53 1 48 13
M  V30 54 1 49 15
M  V30 55 1 50 15
M  V30 56 1 17 51 CFG=1
M  V30 57 1 52 18
M  V30 58 1 53 18
M  V30 59 1 19 54 CFG=1
M  V30 60 1 55 21
M  V30 61 1 56 22
M  V30 62 1 57 22
M  V30 63 1 58 24
M  V30 64 1 59 24
M  V30 65 1 60 25
M  V30 66 1 61 25
M  V30 67 1 62 25
M  V30 68 1 63 27
M  V30 69 1 64 27
M  V30 70 1 65 28
M  V30 71 1 29 66 CFG=3
M  V30 72 1 67 31
M  V30 73 1 68 32
M  V30 74 1 69 32
M  V30 75 1 70 34
M  V30 76 1 71 36
M  V30 77 1 72 36
M  V30 78 1 73 37
M  V30 79 1 74 37
M  V30 80 1 39 75 CFG=1
M  V30 81 1 23 76 CFG=3
M  V30 END BOND
M  V30 END CTAB
M  END
>  <i_epik_Tot_Q>  (1) 
1

>  <i_epik_Tot_abs_Q>  (1) 
3

>  <i_i_glide_confnum>  (1) 
160

>  <i_i_glide_lignum>  (1) 
150

>  <i_i_glide_posenum>  (1) 
4

>  <i_i_glide_rotatable_bonds>  (1) 
8

>  <i_lp_mmshare_version>  (1) 
72125

>  <i_m_source_file_index>  (1) 
76

>  <i_f3d_flags>  (1) 
0

>  <num_sample>  (1) 
100

>  <b_lp_Chiralities_Consistent>  (1) 
1

>  <r_epik_Charging_Adjusted_Penalty>  (1) 
0.015891369841317948

>  <r_epik_Ionization_Penalty>  (1) 
0.0079711574059170582

>  <r_epik_Ionization_Penalty_Charging>  (1) 
0.0079456849206589655

>  <r_epik_Ionization_Penalty_Neutral>  (1) 
2.5472485258093083e-05

>  <r_epik_State_Penalty>  (1) 
0.0079456849206589828

>  <r_glide_ring_energy>  (1) 
0

>  <r_i_docking_score>  (1) 
-6.8471700347798858

>  <r_i_glide_ecoul>  (1) 
-10.396341679594519

>  <r_i_glide_eff_state_penalty>  (1) 
0.0079456849206589828

>  <r_i_glide_einternal>  (1) 
31.593646785647362

>  <r_i_glide_emodel>  (1) 
-47.139424310287609

>  <r_i_glide_emodel_strain>  (1) 
0.14726171266805466

>  <r_i_glide_energy>  (1) 
-45.311315921107351

>  <r_i_glide_erotb>  (1) 
0.34657339541443727

>  <r_i_glide_esite>  (1) 
-0.03280063151228426

>  <r_i_glide_evdw>  (1) 
-34.91497424151283

>  <r_i_glide_gscore>  (1) 
-6.855115719700545

>  <r_i_glide_gscore_strain>  (1) 
0

>  <r_i_glide_hbond>  (1) 
-0.45599999999999996

>  <r_i_glide_ligand_efficiency>  (1) 
-0.17556846243025348

>  <r_i_glide_ligand_efficiency_ln>  (1) 
-1.468227623936835

>  <r_i_glide_ligand_efficiency_sa>  (1) 
-0.59538977882587851

>  <r_i_glide_lipo>  (1) 
-2.2356225708902584

>  <r_i_glide_metal>  (1) 
-0

>  <r_i_glide_rewards>  (1) 
-1.1720659486976197

>  <r_lp_Energy>  (1) 
47.04589

>  <r_lp_tautomer_probability>  (1) 
0.99999997999999912

>  <s_epik_cmdline>  (1) 
J2VwaWtfcHl0aG9uJywgJy1waHQnLCAnMS4wJywgJy1waCcsICc3LjQnLCAnLXRuJywgJzgnLCAnLW1hJywgJzUwMCcsICctaW1hZScsICc8aW5maWxlLm1hZT4nLCAnLW9tYWUnLCAnPG91dGZpbGUubWFlPic=

>  <s_epik_input>  (1) 
W0NIM11bQ0BdMShbT0hdKVtDQEhdKFtDQEhdMTIpW0NIMl1OKFtDSDJdMilbQ0BASF0zW0NIMl1DKD1PKVtDSDJdW0NASF0oW0NAQEhdMzQpTihbQ0gyXVtDQEBIXShGKVtDSDJdW0NIMl00KUMoPU8pW0NIMl1jKG41KVtjSF1jKFtOK10oW08tXSk9TyljKGM1NilbTkhdW0NAQEhdKFtDSDJdW0NIMl02KVtDSDJdW09IXQ==

>  <s_glide_docking_method>  (1) 
confgen

>  <s_i_glide_gridfile>  (1) 
gpcr_drd2_6luq_protein_autoprepared_prepared

>  <s_lp_Force_Field>  (1) 
S-OPLS

>  <s_lp_Variant>  (1) 
DiffSBDD_75_num_sample_100-1

>  <s_m_source_file>  (1) 
generated__ligand_DiffSBDD_2026-05-06_prepared.sdf

>  <GenAI_Model>  (1) 
DiffSBDD

>  <Protein>  (1) 
generic_title2

$$$$
DiffSBDD_59_num_sample_100
     RDKit          3D

  0  0  0  0  0  0  0  0  0  0999 V3000
M  V30 BEGIN CTAB
M  V30 COUNTS 74 77 0 0 1
M  V30 BEGIN ATOM
M  V30 1 C 7.117710 2.666988 -14.521773 0
M  V30 2 N 10.504173 7.686625 -8.995519 0 CFG=2 CHG=1
M  V30 3 C 11.637528 8.627685 -9.203837 0
M  V30 4 C 9.788735 7.144258 -10.218185 0 CFG=1
M  V30 5 C 6.677808 5.814294 -16.275355 0
M  V30 6 C 7.470080 4.164096 -14.465083 0 CFG=2
M  V30 7 C 3.557483 10.871851 -22.059545 0
M  V30 8 C 6.780556 8.880376 -22.096216 0
M  V30 9 C 8.463259 4.228770 -16.807265 0
M  V30 10 C 5.390274 8.981813 -21.893561 0
M  V30 11 O 8.250236 6.572731 -13.042674 0
M  V30 12 O 4.893486 11.305281 -22.349397 0
M  V30 13 C 4.799509 8.139251 -20.936239 0
M  V30 14 C 8.556303 4.764561 -18.102355 0
M  V30 15 C 12.642012 8.551312 -8.035960 0
M  V30 16 C 7.533366 4.749355 -15.883489 0
M  V30 17 C 7.005583 7.237387 -20.478270 0
M  V30 18 C 6.768435 6.343777 -17.580627 0
M  V30 19 N 7.572468 8.015147 -21.425635 0
M  V30 20 C 9.575834 8.185409 -7.929492 0
M  V30 21 N 10.234744 5.748364 -12.323646 0
M  V30 22 C 5.676719 6.405516 -15.298409 0
M  V30 23 C 8.949166 5.883893 -9.829512 0
M  V30 24 O 9.034844 8.284542 -10.574757 0
M  V30 25 N 7.878589 6.360090 -19.802679 0
M  V30 26 C 9.076091 5.664241 -13.002361 0
M  V30 27 C 7.714408 5.818568 -18.503106 0
M  V30 28 C 12.235176 9.243723 -6.737772 0
M  V30 29 C 5.613932 7.251948 -20.215687 0
M  V30 30 C 8.819363 4.342271 -13.724715 0
M  V30 31 C 10.408029 6.555013 -6.115920 0
M  V30 32 C 4.569305 9.946778 -22.682263 0 CFG=2
M  V30 33 C 10.053059 8.002359 -6.485639 0 CFG=1
M  V30 34 C 10.633061 6.914485 -11.528348 0
M  V30 35 C 11.107289 8.993596 -6.059105 0
M  V30 36 H 6.234840 2.486505 -15.129213 0
M  V30 37 H 7.931410 2.079566 -14.947577 0
M  V30 38 H 6.917625 2.275487 -13.523835 0
M  V30 39 H 12.197964 8.392547 -10.103214 0
M  V30 40 H 11.278259 9.646875 -9.351902 0
M  V30 41 H 6.692518 4.628723 -13.864070 0
M  V30 42 H 2.795258 11.318232 -22.693458 0
M  V30 43 H 3.323434 10.768602 -21.000896 0
M  V30 44 H 7.272222 9.508262 -22.824293 0
M  V30 45 H 9.117036 3.420548 -16.516015 0
M  V30 46 H 3.734799 8.171776 -20.758857 0
M  V30 47 H 9.284793 4.367026 -18.794033 0
M  V30 48 H 12.874765 7.510534 -7.817771 0
M  V30 49 H 13.594547 8.968925 -8.356494 0
M  V30 50 H 6.141229 7.173487 -17.850611 0
M  V30 51 H 9.302359 9.222733 -8.116484 0
M  V30 52 H 8.635089 7.669065 -7.948108 0
M  V30 53 H 10.869560 4.960183 -12.352618 0
M  V30 54 H 5.036941 7.143955 -15.785221 0
M  V30 55 H 5.034192 5.630864 -14.888414 0
M  V30 56 H 6.189267 6.905193 -14.477727 0
M  V30 57 H 9.575185 4.991721 -9.812979 0
M  V30 58 H 8.465309 5.899639 -8.858421 0
M  V30 59 H 8.130735 5.709814 -10.524521 0
M  V30 60 H 8.136604 8.169733 -10.214865 0
M  V30 61 H 8.781002 6.215267 -20.231786 0
M  V30 62 H 12.930536 9.973491 -6.346342 0
M  V30 63 H 5.174540 6.585307 -19.492941 0
M  V30 64 H 9.652853 4.177924 -14.399459 0
M  V30 65 H 8.901336 3.575108 -12.953195 0
M  V30 66 H 10.596829 6.457544 -5.044918 0
M  V30 67 H 9.586033 5.881768 -6.362746 0
M  V30 68 H 11.292519 6.195689 -6.642724 0
M  V30 69 H 4.551739 9.735594 -23.750277 0
M  V30 70 H 9.181102 8.265318 -5.887997 0
M  V30 71 H 10.604089 7.769312 -12.199699 0
M  V30 72 H 11.689454 6.774723 -11.325960 0
M  V30 73 H 10.914988 9.529392 -5.140170 0
M  V30 74 H 10.932273 6.861631 -8.601598 0
M  V30 END ATOM
M  V30 BEGIN BOND
M  V30 1 1 3 2
M  V30 2 1 4 2
M  V30 3 1 6 1
M  V30 4 2 10 8
M  V30 5 1 12 7
M  V30 6 1 13 10
M  V30 7 2 14 9
M  V30 8 1 15 3
M  V30 9 2 16 5
M  V30 10 1 16 6
M  V30 11 1 16 9
M  V30 12 1 18 5
M  V30 13 1 19 8
M  V30 14 2 19 17
M  V30 15 1 20 2
M  V30 16 1 22 5
M  V30 17 1 23 4
M  V30 18 1 4 24 CFG=3
M  V30 19 1 25 17
M  V30 20 2 26 11
M  V30 21 1 26 21
M  V30 22 1 27 14
M  V30 23 2 27 18
M  V30 24 1 27 25
M  V30 25 1 28 15
M  V30 26 2 29 13
M  V30 27 1 29 17
M  V30 28 1 30 6
M  V30 29 1 30 26
M  V30 30 1 32 7
M  V30 31 1 32 10
M  V30 32 1 32 12
M  V30 33 1 33 20
M  V30 34 1 33 31
M  V30 35 1 34 4
M  V30 36 1 34 21
M  V30 37 2 35 28
M  V30 38 1 35 33
M  V30 39 1 36 1
M  V30 40 1 37 1
M  V30 41 1 38 1
M  V30 42 1 39 3
M  V30 43 1 40 3
M  V30 44 1 6 41 CFG=1
M  V30 45 1 42 7
M  V30 46 1 43 7
M  V30 47 1 44 8
M  V30 48 1 45 9
M  V30 49 1 46 13
M  V30 50 1 47 14
M  V30 51 1 48 15
M  V30 52 1 49 15
M  V30 53 1 50 18
M  V30 54 1 51 20
M  V30 55 1 52 20
M  V30 56 1 53 21
M  V30 57 1 54 22
M  V30 58 1 55 22
M  V30 59 1 56 22
M  V30 60 1 57 23
M  V30 61 1 58 23
M  V30 62 1 59 23
M  V30 63 1 60 24
M  V30 64 1 61 25
M  V30 65 1 62 28
M  V30 66 1 63 29
M  V30 67 1 64 30
M  V30 68 1 65 30
M  V30 69 1 66 31
M  V30 70 1 67 31
M  V30 71 1 68 31
M  V30 72 1 32 69 CFG=3
M  V30 73 1 33 70 CFG=1
M  V30 74 1 71 34
M  V30 75 1 72 34
M  V30 76 1 73 35
M  V30 77 1 2 74 CFG=1
M  V30 END BOND
M  V30 END CTAB
M  END
>  <i_epik_Tot_Q>  (1) 
1

>  <i_epik_Tot_abs_Q>  (1) 
1

>  <i_i_glide_confnum>  (1) 
469

>  <i_i_glide_lignum>  (1) 
118

>  <i_i_glide_posenum>  (1) 
91

>  <i_i_glide_rotatable_bonds>  (1) 
11

>  <i_lp_mmshare_version>  (1) 
72125

>  <i_m_source_file_index>  (1) 
60

>  <i_f3d_flags>  (1) 
0

>  <num_sample>  (1) 
100

>  <b_lp_Chiralities_Consistent>  (1) 
1

>  <r_epik_Charging_Adjusted_Penalty>  (1) 
1.3886415501160498

>  <r_epik_Ionization_Penalty>  (1) 
0.71269190361940904

>  <r_epik_Ionization_Penalty_Charging>  (1) 
0.69432077505802503

>  <r_epik_Ionization_Penalty_Neutral>  (1) 
0.018371128561383968

>  <r_epik_State_Penalty>  (1) 
0.69432077505802492

>  <r_glide_ring_energy>  (1) 
0

>  <r_i_docking_score>  (1) 
-6.8430603541637343

>  <r_i_glide_ecoul>  (1) 
-11.256491837188975

>  <r_i_glide_eff_state_penalty>  (1) 
0.69432077505802492

>  <r_i_glide_einternal>  (1) 
13.752955509445663

>  <r_i_glide_emodel>  (1) 
-54.301792934321654

>  <r_i_glide_emodel_strain>  (1) 
1.7134244061488886

>  <r_i_glide_energy>  (1) 
-45.757067263275765

>  <r_i_glide_erotb>  (1) 
0.88120926584797454

>  <r_i_glide_esite>  (1) 
-0.12656944992295568

>  <r_i_glide_evdw>  (1) 
-34.50057542608679

>  <r_i_glide_gscore>  (1) 
-7.5373811292217594

>  <r_i_glide_gscore_strain>  (1) 
0

>  <r_i_glide_hbond>  (1) 
-0.44049016437762128

>  <r_i_glide_ligand_efficiency>  (1) 
-0.19551601011896383

>  <r_i_glide_ligand_efficiency_ln>  (1) 
-1.5022036212807706

>  <r_i_glide_ligand_efficiency_sa>  (1) 
-0.63954583380263408

>  <r_i_glide_lipo>  (1) 
-3.3551442032162142

>  <r_i_glide_metal>  (1) 
-0

>  <r_i_glide_rewards>  (1) 
-1.0828840306702578

>  <r_lp_Energy>  (1) 
32.050570999999998

>  <r_lp_tautomer_probability>  (1) 
0.99999977220005165

>  <s_epik_cmdline>  (1) 
J2VwaWtfcHl0aG9uJywgJy1waHQnLCAnMS4wJywgJy1waCcsICc3LjQnLCAnLXRuJywgJzgnLCAnLW1hJywgJzUwMCcsICctaW1hZScsICc8aW5maWxlLm1hZT4nLCAnLW9tYWUnLCAnPG91dGZpbGUubWFlPic=

>  <s_epik_input>  (1) 
W0NIMl0xW0NAQEhdKFtDSDNdKVtDSF09W0NIXVtDSDJdW0NIMl1OMVtDQEBdKFtDSDNdKShbT0hdKVtDSDJdW05IXUMoPU8pW0NIMl1bQ0BIXShbQ0gzXSljKGMyW0NIM10pW2NIXVtjSF1jKFtjSF0yKVtOSF1jKFtjSF1bY0hdMyluW2NIXWMzW0NASF00W0NIMl1PNA==

>  <s_glide_docking_method>  (1) 
confgen

>  <s_i_glide_gridfile>  (1) 
gpcr_drd2_6luq_protein_autoprepared_prepared

>  <s_lp_Force_Field>  (1) 
S-OPLS

>  <s_lp_Variant>  (1) 
DiffSBDD_59_num_sample_100-2

>  <s_m_source_file>  (1) 
generated__ligand_DiffSBDD_2026-05-06_prepared.sdf

>  <GenAI_Model>  (1) 
DiffSBDD

>  <Protein>  (1) 
generic_title2

$$$$
DiffSBDD_48_num_sample_100
     RDKit          3D

  0  0  0  0  0  0  0  0  0  0999 V3000
M  V30 BEGIN CTAB
M  V30 COUNTS 51 53 0 0 1
M  V30 BEGIN ATOM
M  V30 1 O 12.634844 7.246137 -1.771481 0
M  V30 2 O 7.428257 6.154048 -14.944049 0
M  V30 3 C 10.617210 6.472779 -6.231340 0
M  V30 4 C 6.303600 6.291311 -14.099064 0
M  V30 5 C 7.752137 5.465886 -12.138659 0
M  V30 6 N 10.621902 7.557316 -7.310204 0
M  V30 7 C 6.696697 6.478271 -12.614056 0 CFG=2
M  V30 8 N 9.699394 7.434114 -8.363802 0
M  V30 9 C 11.834836 9.526253 -4.558780 0
M  V30 10 C 5.434852 6.409133 -11.745338 0
M  V30 11 C 9.465434 6.529339 -10.661616 0
M  V30 12 C 12.823840 5.853218 -1.573047 0
M  V30 13 C 8.396562 4.569304 -9.935264 0
M  V30 14 C 12.201057 7.688304 -2.991158 0
M  V30 15 C 11.301868 8.605386 -5.464142 0
M  V30 16 C 12.289099 9.066126 -3.305547 0
M  V30 17 C 9.266496 5.008972 -8.765800 0
M  V30 18 C 9.959215 6.298966 -9.233606 0 CFG=2
M  V30 19 O 7.227127 7.769304 -12.454841 0
M  V30 20 N 8.209857 5.766288 -10.759987 0 CFG=2 CHG=1
M  V30 21 C 11.208626 7.299269 -5.169764 0
M  V30 22 C 11.647230 6.791335 -3.942298 0
M  V30 23 C 10.798566 8.970883 -6.790014 0
M  V30 24 H 7.130077 6.098685 -15.839458 0
M  V30 25 H 9.603324 6.169336 -5.969491 0
M  V30 26 H 11.239641 5.626330 -6.519383 0
M  V30 27 H 5.695594 7.128657 -14.445498 0
M  V30 28 H 5.696207 5.392961 -14.215884 0
M  V30 29 H 7.307652 4.469901 -12.177633 0
M  V30 30 H 8.611291 5.431412 -12.810543 0
M  V30 31 H 8.742375 7.422164 -8.008564 0
M  V30 32 H 11.893663 10.569307 -4.815035 0
M  V30 33 H 4.980039 5.423912 -11.825525 0
M  V30 34 H 5.637646 6.569290 -10.691667 0
M  V30 35 H 4.713652 7.171910 -12.038570 0
M  V30 36 H 10.200521 6.134329 -11.364557 0
M  V30 37 H 9.326448 7.586357 -10.892481 0
M  V30 38 H 13.434833 5.683477 -0.691667 0
M  V30 39 H 11.861543 5.369307 -1.428065 0
M  V30 40 H 13.359449 5.374792 -2.386798 0
M  V30 41 H 7.434634 4.169303 -9.613232 0
M  V30 42 H 8.925265 3.814696 -10.523627 0
M  V30 43 H 12.700206 9.761267 -2.589115 0
M  V30 44 H 8.636784 5.190089 -7.893145 0
M  V30 45 H 9.986340 4.235779 -8.501926 0
M  V30 46 H 11.034847 6.169304 -9.258126 0
M  V30 47 H 7.049043 8.066728 -11.570039 0
M  V30 48 H 11.557150 5.741464 -3.728595 0
M  V30 49 H 11.502352 9.540968 -7.396022 0
M  V30 50 H 9.834848 9.461594 -6.692801 0
M  V30 51 H 7.509783 6.344568 -10.295454 0
M  V30 END ATOM
M  V30 BEGIN BOND
M  V30 1 1 4 2
M  V30 2 1 6 3
M  V30 3 1 7 4
M  V30 4 1 7 5
M  V30 5 1 8 6
M  V30 6 1 10 7
M  V30 7 1 12 1
M  V30 8 1 14 1
M  V30 9 1 15 9
M  V30 10 2 16 9
M  V30 11 1 16 14
M  V30 12 1 17 13
M  V30 13 1 18 8
M  V30 14 1 18 11
M  V30 15 1 18 17
M  V30 16 1 7 19 CFG=3
M  V30 17 1 20 5
M  V30 18 1 20 11
M  V30 19 1 20 13
M  V30 20 1 21 3
M  V30 21 2 21 15
M  V30 22 2 22 14
M  V30 23 1 22 21
M  V30 24 1 23 6
M  V30 25 1 23 15
M  V30 26 1 24 2
M  V30 27 1 25 3
M  V30 28 1 26 3
M  V30 29 1 27 4
M  V30 30 1 28 4
M  V30 31 1 29 5
M  V30 32 1 30 5
M  V30 33 1 31 8
M  V30 34 1 32 9
M  V30 35 1 33 10
M  V30 36 1 34 10
M  V30 37 1 35 10
M  V30 38 1 36 11
M  V30 39 1 37 11
M  V30 40 1 38 12
M  V30 41 1 39 12
M  V30 42 1 40 12
M  V30 43 1 41 13
M  V30 44 1 42 13
M  V30 45 1 43 16
M  V30 46 1 44 17
M  V30 47 1 45 17
M  V30 48 1 18 46 CFG=3
M  V30 49 1 47 19
M  V30 50 1 48 22
M  V30 51 1 49 23
M  V30 52 1 50 23
M  V30 53 1 20 51 CFG=1
M  V30 END BOND
M  V30 END CTAB
M  END
>  <i_epik_Tot_Q>  (1) 
1

>  <i_epik_Tot_abs_Q>  (1) 
1

>  <i_i_glide_confnum>  (1) 
21

>  <i_i_glide_lignum>  (1) 
90

>  <i_i_glide_posenum>  (1) 
294

>  <i_i_glide_rotatable_bonds>  (1) 
8

>  <i_lp_mmshare_version>  (1) 
72125

>  <i_m_source_file_index>  (1) 
49

>  <i_f3d_flags>  (1) 
0

>  <num_sample>  (1) 
100

>  <b_lp_Chiralities_Consistent>  (1) 
1

>  <r_epik_Charging_Adjusted_Penalty>  (1) 
0.014070542232369893

>  <r_epik_Ionization_Penalty>  (1) 
0.01444304470814459

>  <r_epik_Ionization_Penalty_Charging>  (1) 
0.014070542232369893

>  <r_epik_Ionization_Penalty_Neutral>  (1) 
0.00037250247577469821

>  <r_epik_State_Penalty>  (1) 
-0

>  <r_glide_ring_energy>  (1) 
0

>  <r_i_docking_score>  (1) 
-6.8328849753195859

>  <r_i_glide_ecoul>  (1) 
-8.731522099903664

>  <r_i_glide_eff_state_penalty>  (1) 
-0

>  <r_i_glide_einternal>  (1) 
6.8026341248960751

>  <r_i_glide_emodel>  (1) 
-55.82553569735429

>  <r_i_glide_emodel_strain>  (1) 
0.81406595557741923

>  <r_i_glide_energy>  (1) 
-38.037486289013671

>  <r_i_glide_erotb>  (1) 
0.89938055447957976

>  <r_i_glide_esite>  (1) 
-0.19249797492925916

>  <r_i_glide_evdw>  (1) 
-29.305964189110011

>  <r_i_glide_gscore>  (1) 
-6.8328849753195859

>  <r_i_glide_gscore_strain>  (1) 
0

>  <r_i_glide_hbond>  (1) 
-0.34422694613822302

>  <r_i_glide_ligand_efficiency>  (1) 
-0.29708195544867766

>  <r_i_glide_ligand_efficiency_ln>  (1) 
-1.6522535442077495

>  <r_i_glide_ligand_efficiency_sa>  (1) 
-0.84486156341022822

>  <r_i_glide_lipo>  (1) 
-2.5526996946436085

>  <r_i_glide_metal>  (1) 
-0

>  <r_i_glide_rewards>  (1) 
-1.8678143896470256

>  <r_lp_Energy>  (1) 
29.344918999999997

>  <r_lp_tautomer_probability>  (1) 
1

>  <s_epik_cmdline>  (1) 
J2VwaWtfcHl0aG9uJywgJy1waHQnLCAnMS4wJywgJy1waCcsICc3LjQnLCAnLXRuJywgJzgnLCAnLW1hJywgJzUwMCcsICctaW1hZScsICc8aW5maWxlLm1hZT4nLCAnLW9tYWUnLCAnPG91dGZpbGUubWFlPic=

>  <s_epik_input>  (1) 
W2NIXTFbY0hdYyhPW0NIM10pW2NIXWMoYzEyKVtDSDJdTihbQ0gyXTIpW05IXVtDQEBIXTNbQ0gyXU4oW0NIMl1bQ0gyXTMpW0NIMl1bQ0BAXShbQ0gzXSkoW09IXSlbQ0gyXVtPSF0=

>  <s_glide_docking_method>  (1) 
confgen

>  <s_i_glide_gridfile>  (1) 
gpcr_drd2_6luq_protein_autoprepared_prepared

>  <s_lp_Force_Field>  (1) 
S-OPLS

>  <s_lp_Variant>  (1) 
DiffSBDD_48_num_sample_100-2

>  <s_m_source_file>  (1) 
generated__ligand_DiffSBDD_2026-05-06_prepared.sdf

>  <GenAI_Model>  (1) 
DiffSBDD

>  <Protein>  (1) 
generic_title2

$$$$
DiffSBDD_35_num_sample_100
     RDKit          3D

  0  0  0  0  0  0  0  0  0  0999 V3000
M  V30 BEGIN CTAB
M  V30 COUNTS 57 63 0 0 1
M  V30 BEGIN ATOM
M  V30 1 C 11.272169 8.112139 -9.164984 0
M  V30 2 C 5.525561 7.375471 -16.227496 0
M  V30 3 N 8.276314 5.480409 -13.016572 0
M  V30 4 C 7.913058 4.762554 -17.395365 0
M  V30 5 C 6.658782 5.694618 -19.283304 0
M  V30 6 S 9.133771 3.592358 -17.023689 0
M  V30 7 C 9.834551 6.626484 -10.643698 0
M  V30 8 C 9.461835 2.576635 -21.224632 0
M  V30 9 C 10.116088 7.037625 -6.825787 0
M  V30 10 C 10.281670 7.114735 -9.268269 0
M  V30 11 C 6.236722 6.503367 -17.093936 0
M  V30 12 C 5.861223 5.868530 -12.059968 0
M  V30 13 C 7.423912 5.663766 -15.114230 0
M  V30 14 N 6.002221 6.501630 -18.413665 0
M  V30 15 C 8.515639 3.792381 -19.548380 0
M  V30 16 C 9.371380 3.089510 -18.645288 0
M  V30 17 C 7.200721 5.634071 -16.529401 0
M  V30 18 N 10.302432 1.866737 -20.459362 0
M  V30 19 C 10.250496 2.133069 -19.145540 0
M  V30 20 C 7.652043 4.778571 -18.821739 0
M  V30 21 C 7.060755 6.393321 -12.873204 0 CFG=2
M  V30 22 C 11.105513 8.034049 -6.730521 0
M  V30 23 N 8.058786 5.369297 -9.540626 0 CHG=1
M  V30 24 C 8.679127 4.624319 -11.895918 0
M  V30 25 O 5.474894 4.569317 -12.463768 0
M  V30 26 N 8.569938 3.519622 -20.862920 0
M  V30 27 C 8.393618 4.813606 -14.379542 0
M  V30 28 C 5.774780 7.369304 -14.840902 0
M  V30 29 C 9.122112 5.268045 -10.558322 0 CFG=1
M  V30 30 C 11.683368 8.569326 -7.897663 0
M  V30 31 C 6.733127 6.495219 -14.322109 0
M  V30 32 C 9.700086 6.573218 -8.090038 0
M  V30 33 C 8.627567 5.491451 -8.183031 0
M  V30 34 H 11.715832 8.528035 -10.057966 0
M  V30 35 H 4.783707 8.047148 -16.634843 0
M  V30 36 H 6.402940 5.772461 -20.329376 0
M  V30 37 H 10.689255 6.569375 -11.318116 0
M  V30 38 H 9.164182 7.380301 -11.057204 0
M  V30 39 H 9.507798 2.365056 -22.282007 0
M  V30 40 H 9.674680 6.628844 -5.927948 0
M  V30 41 H 5.034852 6.559479 -12.186213 0
M  V30 42 H 6.062411 5.861672 -10.993990 0
M  V30 43 H 10.915050 1.581304 -18.497119 0
M  V30 44 H 7.364601 7.370896 -12.497465 0
M  V30 45 H 11.422930 8.388545 -5.760505 0
M  V30 46 H 7.540372 6.241391 -9.688119 0
M  V30 47 H 7.914903 3.869350 -11.711507 0
M  V30 48 H 9.542727 4.052294 -12.239791 0
M  V30 49 H 5.434524 4.560379 -13.409314 0
M  V30 50 H 8.060808 3.775126 -14.350097 0
M  V30 51 H 9.417834 4.896972 -14.741401 0
M  V30 52 H 5.221561 8.025879 -14.188702 0
M  V30 53 H 9.834838 4.548989 -10.151628 0
M  V30 54 H 12.440887 9.333180 -7.820325 0
M  V30 55 H 9.061988 4.535592 -7.891634 0
M  V30 56 H 7.834861 5.709014 -7.469763 0
M  V30 57 H 7.424541 4.585556 -9.581679 0
M  V30 END ATOM
M  V30 BEGIN BOND
M  V30 1 1 6 4
M  V30 2 2 10 1
M  V30 3 1 10 7
M  V30 4 1 11 2
M  V30 5 1 14 5
M  V30 6 2 14 11
M  V30 7 1 16 6
M  V30 8 1 16 15
M  V30 9 2 17 4
M  V30 10 1 17 11
M  V30 11 1 17 13
M  V30 12 2 18 8
M  V30 13 2 19 16
M  V30 14 1 19 18
M  V30 15 1 20 4
M  V30 16 2 20 5
M  V30 17 1 20 15
M  V30 18 1 21 3
M  V30 19 1 21 12
M  V30 20 1 22 9
M  V30 21 1 24 3
M  V30 22 1 25 12
M  V30 23 1 26 8
M  V30 24 2 26 15
M  V30 25 1 27 3
M  V30 26 1 27 13
M  V30 27 2 28 2
M  V30 28 1 29 7
M  V30 29 1 29 23
M  V30 30 1 29 24
M  V30 31 1 30 1
M  V30 32 2 30 22
M  V30 33 2 31 13
M  V30 34 1 31 21
M  V30 35 1 31 28
M  V30 36 2 32 9
M  V30 37 1 32 10
M  V30 38 1 33 23
M  V30 39 1 33 32
M  V30 40 1 34 1
M  V30 41 1 35 2
M  V30 42 1 36 5
M  V30 43 1 37 7
M  V30 44 1 38 7
M  V30 45 1 39 8
M  V30 46 1 40 9
M  V30 47 1 41 12
M  V30 48 1 42 12
M  V30 49 1 43 19
M  V30 50 1 21 44 CFG=1
M  V30 51 1 45 22
M  V30 52 1 46 23
M  V30 53 1 47 24
M  V30 54 1 48 24
M  V30 55 1 49 25
M  V30 56 1 50 27
M  V30 57 1 51 27
M  V30 58 1 52 28
M  V30 59 1 29 53 CFG=1
M  V30 60 1 54 30
M  V30 61 1 55 33
M  V30 62 1 56 33
M  V30 63 1 57 23
M  V30 END BOND
M  V30 END CTAB
M  END
>  <i_epik_Tot_Q>  (1) 
1

>  <i_epik_Tot_abs_Q>  (1) 
1

>  <i_i_glide_confnum>  (1) 
103

>  <i_i_glide_lignum>  (1) 
63

>  <i_i_glide_posenum>  (1) 
120

>  <i_i_glide_rotatable_bonds>  (1) 
4

>  <i_lp_mmshare_version>  (1) 
72125

>  <i_m_source_file_index>  (1) 
36

>  <i_f3d_flags>  (1) 
0

>  <num_sample>  (1) 
100

>  <b_lp_Chiralities_Consistent>  (1) 
1

>  <r_epik_Charging_Adjusted_Penalty>  (1) 
0.011867444856994655

>  <r_epik_Ionization_Penalty>  (1) 
0.012232925828486813

>  <r_epik_Ionization_Penalty_Charging>  (1) 
0.011867444856994655

>  <r_epik_Ionization_Penalty_Neutral>  (1) 
0.00036548097149215658

>  <r_epik_State_Penalty>  (1) 
-0

>  <r_glide_ring_energy>  (1) 
1.597824353548408

>  <r_i_docking_score>  (1) 
-6.827128779035152

>  <r_i_glide_ecoul>  (1) 
-7.1784675456815554

>  <r_i_glide_eff_state_penalty>  (1) 
-0

>  <r_i_glide_einternal>  (1) 
12.212993763431328

>  <r_i_glide_emodel>  (1) 
-64.071545427594444

>  <r_i_glide_emodel_strain>  (1) 
0.12646947468813607

>  <r_i_glide_energy>  (1) 
-46.318317180728208

>  <r_i_glide_erotb>  (1) 
0.29155208343933364

>  <r_i_glide_esite>  (1) 
-0.10000000000000001

>  <r_i_glide_evdw>  (1) 
-39.139849635046652

>  <r_i_glide_gscore>  (1) 
-6.827128779035152

>  <r_i_glide_gscore_strain>  (1) 
0

>  <r_i_glide_hbond>  (1) 
-0.20000000000000001

>  <r_i_glide_ligand_efficiency>  (1) 
-0.2068826902737925

>  <r_i_glide_ligand_efficiency_ln>  (1) 
-1.5183180914764367

>  <r_i_glide_ligand_efficiency_sa>  (1) 
-0.66358333133508307

>  <r_i_glide_lipo>  (1) 
-2.5752233397790092

>  <r_i_glide_metal>  (1) 
-0

>  <r_i_glide_rewards>  (1) 
-1.2096949090909104

>  <r_lp_Energy>  (1) 
68.826070000000001

>  <r_lp_tautomer_probability>  (1) 
1

>  <s_epik_cmdline>  (1) 
J2VwaWtfcHl0aG9uJywgJy1waHQnLCAnMS4wJywgJy1waCcsICc3LjQnLCAnLXRuJywgJzgnLCAnLW1hJywgJzUwMCcsICctaW1hZScsICc8aW5maWxlLm1hZT4nLCAnLW9tYWUnLCAnPG91dGZpbGUubWFlPic=

>  <s_epik_input>  (1) 
W2NIXTFbY0hdW2NIXVtjSF1jKGMxMilbQ0gyXVtOSF1bQ0BIXShbQ0gyXTIpW0NIMl1OKFtDQEBIXTNbQ0gyXVtPSF0pW0NIMl1jNGMzW2NIXVtjSF1jKGM0YzU2KW5bY0hdYzZjN2MoczUpW2NIXW5bY0hdbjc=

>  <s_glide_docking_method>  (1) 
confgen

>  <s_i_glide_gridfile>  (1) 
gpcr_drd2_6luq_protein_autoprepared_prepared

>  <s_lp_Force_Field>  (1) 
S-OPLS

>  <s_lp_Variant>  (1) 
DiffSBDD_35_num_sample_100-1

>  <s_m_source_file>  (1) 
generated__ligand_DiffSBDD_2026-05-06_prepared.sdf

>  <GenAI_Model>  (1) 
DiffSBDD

>  <Protein>  (1) 
generic_title2

$$$$
DiffSBDD_90_num_sample_100
     RDKit          3D

  0  0  0  0  0  0  0  0  0  0999 V3000
M  V30 BEGIN CTAB
M  V30 COUNTS 61 65 0 0 1
M  V30 BEGIN ATOM
M  V30 1 C 5.253232 7.323961 -18.397061 0
M  V30 2 C 6.414927 6.596921 -15.457214 0
M  V30 3 C 10.710947 7.417806 -5.091660 0
M  V30 4 S 5.034894 7.090554 -20.108105 0
M  V30 5 C 7.818757 4.820448 -14.487794 0
M  V30 6 C 7.267833 4.800322 -16.849365 0
M  V30 7 C 7.916798 4.200409 -15.763483 0
M  V30 8 C 11.154625 6.488118 -6.242187 0
M  V30 9 C 11.677305 9.593737 -6.059194 0
M  V30 10 C 11.492719 9.369301 -3.541779 0
M  V30 11 N 10.489664 6.772745 -7.539764 0 CFG=2 CHG=1
M  V30 12 C 10.515766 8.208080 -7.932560 0
M  V30 13 C 9.281384 4.652838 -9.686700 0
M  V30 14 C 7.635886 6.067477 -11.965982 0
M  V30 15 C 6.548370 5.952242 -16.689087 0
M  V30 16 C 9.123905 6.187250 -7.642765 0
M  V30 17 C 5.988740 5.619440 -20.063461 0
M  V30 18 C 7.287069 4.239169 -18.332058 0
M  V30 19 C 8.468559 4.254930 -13.376554 0
M  V30 20 C 11.768806 8.980932 -7.478215 0
M  V30 21 N 6.415540 5.407174 -18.806162 0 CHG=1
M  V30 22 C 6.308658 4.713677 -21.206888 0
M  V30 23 C 11.665942 8.609615 -4.865667 0 CFG=1
M  V30 24 C 6.975380 6.632441 -13.075777 0
M  V30 25 C 7.064938 6.023540 -14.335001 0
M  V30 26 C 9.150558 4.220097 -10.971722 0
M  V30 27 C 8.689511 5.907870 -9.094266 0
M  V30 28 C 8.399551 4.870087 -12.107449 0
M  V30 29 C 6.027063 6.324683 -17.885364 0
M  V30 30 H 4.811680 8.169299 -17.891638 0
M  V30 31 H 5.841087 7.508010 -15.363775 0
M  V30 32 H 10.686359 6.811783 -4.186079 0
M  V30 33 H 9.694426 7.764286 -5.258427 0
M  V30 34 H 8.483595 3.290291 -15.894090 0
M  V30 35 H 10.975590 5.456505 -5.973605 0
M  V30 36 H 12.234266 6.517843 -6.382617 0
M  V30 37 H 12.511957 10.283222 -5.926862 0
M  V30 38 H 10.780852 10.212136 -6.008966 0
M  V30 39 H 10.634841 10.033921 -3.543758 0
M  V30 40 H 11.434839 8.692859 -2.688724 0
M  V30 41 H 12.366129 9.992438 -3.356515 0
M  V30 42 H 10.460178 8.257446 -9.019949 0
M  V30 43 H 9.624922 8.723460 -7.568617 0
M  V30 44 H 9.862100 4.051021 -9.005045 0
M  V30 45 H 7.546311 6.555308 -11.032127 0
M  V30 46 H 8.412962 6.852917 -7.155469 0
M  V30 47 H 9.059983 5.253567 -7.091675 0
M  V30 48 H 8.268091 4.268659 -18.807087 0
M  V30 49 H 6.764749 3.290099 -18.454801 0
M  V30 50 H 9.034855 3.346454 -13.493598 0
M  V30 51 H 12.685324 8.407015 -7.616835 0
M  V30 52 H 11.834842 9.808236 -8.178451 0
M  V30 53 H 7.390668 4.675752 -21.337623 0
M  V30 54 H 5.916885 3.719859 -20.987692 0
M  V30 55 H 12.634838 8.173098 -4.691667 0
M  V30 56 H 6.403786 7.540995 -12.953967 0
M  V30 57 H 9.641949 3.295075 -11.228612 0
M  V30 58 H 8.981851 6.765613 -9.695602 0
M  V30 59 H 7.608110 5.769300 -9.094728 0
M  V30 60 H 5.838137 5.107197 -22.108522 0
M  V30 61 H 11.040799 6.276426 -8.225248 0
M  V30 END ATOM
M  V30 BEGIN BOND
M  V30 1 1 4 1
M  V30 2 2 7 5
M  V30 3 1 7 6
M  V30 4 1 8 3
M  V30 5 1 11 8
M  V30 6 1 12 11
M  V30 7 1 15 2
M  V30 8 2 15 6
M  V30 9 1 16 11
M  V30 10 1 17 4
M  V30 11 1 18 6
M  V30 12 1 19 5
M  V30 13 1 20 9
M  V30 14 1 20 12
M  V30 15 2 21 17
M  V30 16 1 21 18
M  V30 17 1 22 17
M  V30 18 1 23 3
M  V30 19 1 23 9
M  V30 20 1 23 10
M  V30 21 2 24 14
M  V30 22 2 25 2
M  V30 23 1 25 5
M  V30 24 1 25 24
M  V30 25 2 26 13
M  V30 26 1 27 13
M  V30 27 1 27 16
M  V30 28 1 28 14
M  V30 29 2 28 19
M  V30 30 1 28 26
M  V30 31 2 29 1
M  V30 32 1 29 15
M  V30 33 1 29 21
M  V30 34 1 30 1
M  V30 35 1 31 2
M  V30 36 1 32 3
M  V30 37 1 33 3
M  V30 38 1 34 7
M  V30 39 1 35 8
M  V30 40 1 36 8
M  V30 41 1 37 9
M  V30 42 1 38 9
M  V30 43 1 39 10
M  V30 44 1 40 10
M  V30 45 1 41 10
M  V30 46 1 42 12
M  V30 47 1 43 12
M  V30 48 1 44 13
M  V30 49 1 45 14
M  V30 50 1 46 16
M  V30 51 1 47 16
M  V30 52 1 48 18
M  V30 53 1 49 18
M  V30 54 1 50 19
M  V30 55 1 51 20
M  V30 56 1 52 20
M  V30 57 1 53 22
M  V30 58 1 54 22
M  V30 59 1 23 55 CFG=1
M  V30 60 1 56 24
M  V30 61 1 57 26
M  V30 62 1 58 27
M  V30 63 1 59 27
M  V30 64 1 60 22
M  V30 65 1 11 61 CFG=3
M  V30 END BOND
M  V30 END CTAB
M  END
>  <i_epik_Tot_Q>  (1) 
2

>  <i_epik_Tot_abs_Q>  (1) 
2

>  <i_i_glide_confnum>  (1) 
186

>  <i_i_glide_lignum>  (1) 
183

>  <i_i_glide_posenum>  (1) 
380

>  <i_i_glide_rotatable_bonds>  (1) 
4

>  <i_lp_mmshare_version>  (1) 
72125

>  <i_m_source_file_index>  (1) 
91

>  <i_f3d_flags>  (1) 
0

>  <num_sample>  (1) 
100

>  <b_lp_Chiralities_Consistent>  (1) 
1

>  <r_epik_Charging_Adjusted_Penalty>  (1) 
0.0021252633397680827

>  <r_epik_Ionization_Penalty>  (1) 
0.002125263340211697

>  <r_epik_Ionization_Penalty_Charging>  (1) 
0.0021252633397680827

>  <r_epik_Ionization_Penalty_Neutral>  (1) 
4.4361447992621368e-13

>  <r_epik_State_Penalty>  (1) 
-0

>  <r_glide_ring_energy>  (1) 
0.80691706308613009

>  <r_i_docking_score>  (1) 
-6.8237490555648339

>  <r_i_glide_ecoul>  (1) 
-3.2784486004931646

>  <r_i_glide_eff_state_penalty>  (1) 
-0

>  <r_i_glide_einternal>  (1) 
3.9568048872256654

>  <r_i_glide_emodel>  (1) 
-49.702570355824619

>  <r_i_glide_emodel_strain>  (1) 
0.18386530220189456

>  <r_i_glide_energy>  (1) 
-33.891060825352923

>  <r_i_glide_erotb>  (1) 
0.47996519481946287

>  <r_i_glide_esite>  (1) 
0

>  <r_i_glide_evdw>  (1) 
-30.612612224859756

>  <r_i_glide_gscore>  (1) 
-6.8237490555648339

>  <r_i_glide_gscore_strain>  (1) 
0

>  <r_i_glide_hbond>  (1) 
0

>  <r_i_glide_ligand_efficiency>  (1) 
-0.23530169157120118

>  <r_i_glide_ligand_efficiency_ln>  (1) 
-1.562465498378196

>  <r_i_glide_ligand_efficiency_sa>  (1) 
-0.72292134612654313

>  <r_i_glide_lipo>  (1) 
-3.5925675966297241

>  <r_i_glide_metal>  (1) 
-0

>  <r_i_glide_rewards>  (1) 
-1.6887487524376092

>  <r_lp_Energy>  (1) 
52.418757999999997

>  <r_lp_tautomer_probability>  (1) 
1

>  <s_epik_cmdline>  (1) 
J2VwaWtfcHl0aG9uJywgJy1waHQnLCAnMS4wJywgJy1waCcsICc3LjQnLCAnLXRuJywgJzgnLCAnLW1hJywgJzUwMCcsICctaW1hZScsICc8aW5maWxlLm1hZT4nLCAnLW9tYWUnLCAnPG91dGZpbGUubWFlPic=

>  <s_epik_input>  (1) 
W0NIMl09QzFTW0NIXT1DMk4xW0NIMl1jKFtjSF0zKWMyW2NIXWMoYzM0KVtjSF1bY0hdYyhbY0hdNCkvW0NIXT1bQ0hdXFtDSDJdW0NIMl1ONVtDSDJdW0NIMl1bQ0BIXShbQ0gzXSlbQ0gyXVtDSDJdW0NIMl01

>  <s_glide_docking_method>  (1) 
confgen

>  <s_i_glide_gridfile>  (1) 
gpcr_drd2_6luq_protein_autoprepared_prepared

>  <s_lp_Force_Field>  (1) 
S-OPLS

>  <s_lp_Variant>  (1) 
DiffSBDD_90_num_sample_100-3

>  <s_m_source_file>  (1) 
generated__ligand_DiffSBDD_2026-05-06_prepared.sdf

>  <GenAI_Model>  (1) 
DiffSBDD

>  <Protein>  (1) 
generic_title2

$$$$
DiffSBDD_22_num_sample_100
     RDKit          3D

  0  0  0  0  0  0  0  0  0  0999 V3000
M  V30 BEGIN CTAB
M  V30 COUNTS 46 48 0 0 1
M  V30 BEGIN ATOM
M  V30 1 C 6.011680 6.070397 -14.819560 0
M  V30 2 C 6.892811 5.630037 -18.452388 0
M  V30 3 C 7.763962 5.268533 -13.309880 0
M  V30 4 C 11.434840 8.222465 -5.227435 0
M  V30 5 O 6.397668 5.319077 -10.746682 0
M  V30 6 C 5.034839 6.784019 -19.179813 0
M  V30 7 N 6.285487 6.056853 -17.285562 0
M  V30 8 C 8.404908 4.878035 -9.541357 0
M  V30 9 C 8.120130 5.219197 -15.729657 0
M  V30 10 C 7.599988 5.096367 -10.820077 0
M  V30 11 O 6.548263 5.794959 -20.736635 0 CHG=-1
M  V30 12 C 9.101860 7.397215 -6.691656 0
M  V30 13 O 12.293163 8.969301 -7.330201 0
M  V30 14 N 8.688030 6.169301 -8.868552 0 CHG=1
M  V30 15 N 8.293957 5.014438 -11.986068 0
M  V30 16 C 8.803092 6.053633 -7.390306 0
M  V30 17 C 10.032493 8.274658 -8.813573 0
M  V30 18 C 9.819916 6.911671 -9.484011 0
M  V30 19 C 6.471670 5.822822 -13.516988 0
M  V30 20 O 7.919542 4.954926 -18.509547 0
M  V30 21 C 11.349803 8.450592 -6.740857 0
M  V30 22 C 6.818405 5.769315 -15.941804 0
M  V30 23 S 4.793347 6.969301 -17.482989 0
M  V30 24 N 10.211352 8.065707 -7.376782 0
M  V30 25 C 8.579641 4.977172 -14.419668 0
M  V30 26 C 6.120111 6.091052 -19.597934 0
M  V30 27 H 5.034842 6.494135 -14.955023 0
M  V30 28 H 10.634838 8.745011 -4.709107 0
M  V30 29 H 11.412182 7.160999 -4.978394 0
M  V30 30 H 12.364620 8.633162 -4.834959 0
M  V30 31 H 4.314615 7.223543 -19.852599 0
M  V30 32 H 7.785591 4.262483 -8.886556 0
M  V30 33 H 9.326083 4.323916 -9.731380 0
M  V30 34 H 8.774035 4.995699 -16.543198 0
M  V30 35 H 8.234840 8.057045 -6.710522 0
M  V30 36 H 9.278888 7.173176 -5.645253 0
M  V30 37 H 9.268776 4.759030 -11.934216 0
M  V30 38 H 7.886584 5.625642 -6.982160 0
M  V30 39 H 9.615246 5.365539 -7.163783 0
M  V30 40 H 9.158038 8.909537 -8.968200 0
M  V30 41 H 10.866482 8.791608 -9.290639 0
M  V30 42 H 10.724552 6.316611 -9.385625 0
M  V30 43 H 9.643037 7.061251 -10.549261 0
M  V30 44 H 5.833392 6.074658 -12.696598 0
M  V30 45 H 9.568283 4.569299 -14.267504 0
M  V30 46 H 7.869284 6.772113 -9.048561 0
M  V30 END ATOM
M  V30 BEGIN BOND
M  V30 1 1 7 2
M  V30 2 2 10 5
M  V30 3 1 10 8
M  V30 4 1 14 8
M  V30 5 1 15 3
M  V30 6 1 15 10
M  V30 7 1 16 12
M  V30 8 1 16 14
M  V30 9 1 18 14
M  V30 10 1 18 17
M  V30 11 2 19 1
M  V30 12 1 19 3
M  V30 13 2 20 2
M  V30 14 1 21 4
M  V30 15 2 21 13
M  V30 16 1 22 1
M  V30 17 1 22 7
M  V30 18 2 22 9
M  V30 19 1 23 6
M  V30 20 1 23 7
M  V30 21 1 24 12
M  V30 22 1 24 17
M  V30 23 1 24 21
M  V30 24 2 25 3
M  V30 25 1 25 9
M  V30 26 1 26 2
M  V30 27 2 26 6
M  V30 28 1 26 11
M  V30 29 1 27 1
M  V30 30 1 28 4
M  V30 31 1 29 4
M  V30 32 1 30 4
M  V30 33 1 31 6
M  V30 34 1 32 8
M  V30 35 1 33 8
M  V30 36 1 34 9
M  V30 37 1 35 12
M  V30 38 1 36 12
M  V30 39 1 37 15
M  V30 40 1 38 16
M  V30 41 1 39 16
M  V30 42 1 40 17
M  V30 43 1 41 17
M  V30 44 1 42 18
M  V30 45 1 43 18
M  V30 46 1 44 19
M  V30 47 1 45 25
M  V30 48 1 46 14
M  V30 END BOND
M  V30 END CTAB
M  END
>  <i_epik_Tot_Q>  (1) 
0

>  <i_epik_Tot_abs_Q>  (1) 
2

>  <i_i_glide_confnum>  (1) 
77

>  <i_i_glide_lignum>  (1) 
35

>  <i_i_glide_posenum>  (1) 
339

>  <i_i_glide_rotatable_bonds>  (1) 
6

>  <i_lp_mmshare_version>  (1) 
72125

>  <i_m_source_file_index>  (1) 
23

>  <i_f3d_flags>  (1) 
0

>  <num_sample>  (1) 
100

>  <b_lp_Chiralities_Consistent>  (1) 
1

>  <r_epik_Charging_Adjusted_Penalty>  (1) 
0.707433222311869

>  <r_epik_Ionization_Penalty>  (1) 
0.35375602504973802

>  <r_epik_Ionization_Penalty_Charging>  (1) 
0.35374474494757885

>  <r_epik_Ionization_Penalty_Neutral>  (1) 
1.1280102159195983e-05

>  <r_epik_State_Penalty>  (1) 
0.35368847736429015

>  <r_glide_ring_energy>  (1) 
0

>  <r_i_docking_score>  (1) 
-6.8224923569834734

>  <r_i_glide_ecoul>  (1) 
-7.162100175138808

>  <r_i_glide_eff_state_penalty>  (1) 
0.35368847736429015

>  <r_i_glide_einternal>  (1) 
12.561522072112044

>  <r_i_glide_emodel>  (1) 
-63.224829146020767

>  <r_i_glide_emodel_strain>  (1) 
0.17877533131861867

>  <r_i_glide_energy>  (1) 
-45.110769970442377

>  <r_i_glide_erotb>  (1) 
0.47811857986973644

>  <r_i_glide_esite>  (1) 
-0.17211617163410631

>  <r_i_glide_evdw>  (1) 
-37.948669795303566

>  <r_i_glide_gscore>  (1) 
-7.1761808343477638

>  <r_i_glide_gscore_strain>  (1) 
0

>  <r_i_glide_hbond>  (1) 
-0.17759992137931271

>  <r_i_glide_ligand_efficiency>  (1) 
-0.26240355219167205

>  <r_i_glide_ligand_efficiency_ln>  (1) 
-1.6022399436142269

>  <r_i_glide_ligand_efficiency_sa>  (1) 
-0.77736949170395686

>  <r_i_glide_lipo>  (1) 
-1.6294909795196568

>  <r_i_glide_metal>  (1) 
-0

>  <r_i_glide_rewards>  (1) 
-2.7033438256484255

>  <r_lp_Energy>  (1) 
50.884591999999998

>  <r_lp_tautomer_probability>  (1) 
1

>  <s_epik_cmdline>  (1) 
J2VwaWtfcHl0aG9uJywgJy1waHQnLCAnMS4wJywgJy1waCcsICc3LjQnLCAnLXRuJywgJzgnLCAnLW1hJywgJzUwMCcsICctaW1hZScsICc8aW5maWxlLm1hZT4nLCAnLW9tYWUnLCAnPG91dGZpbGUubWFlPic=

>  <s_epik_input>  (1) 
Tz1DMVtDSDJdU04oQzE9TyljKFtjSF1bY0hdMilbY0hdW2NIXWMyW05IXUMoPU8pW0NIMl1OM1tDSDJdW0NIMl1OKFtDSDJdW0NIMl0zKUMoPU8pW0NIM10=

>  <s_glide_docking_method>  (1) 
confgen

>  <s_i_glide_gridfile>  (1) 
gpcr_drd2_6luq_protein_autoprepared_prepared

>  <s_lp_Force_Field>  (1) 
S-OPLS

>  <s_lp_Variant>  (1) 
DiffSBDD_22_num_sample_100-1

>  <s_m_source_file>  (1) 
generated__ligand_DiffSBDD_2026-05-06_prepared.sdf

>  <GenAI_Model>  (1) 
DiffSBDD

>  <Protein>  (1) 
generic_title2

$$$$
DiffSBDD_90_num_sample_100
     RDKit          3D

  0  0  0  0  0  0  0  0  0  0999 V3000
M  V30 BEGIN CTAB
M  V30 COUNTS 61 65 0 0 1
M  V30 BEGIN ATOM
M  V30 1 C 5.369881 7.369259 -18.031326 0
M  V30 2 C 6.633153 6.655008 -15.130453 0
M  V30 3 C 10.635633 9.560099 -6.068750 0
M  V30 4 S 5.034814 7.095411 -19.717450 0
M  V30 5 C 7.917190 4.789842 -14.163419 0
M  V30 6 C 7.237041 4.734852 -16.489564 0
M  V30 7 C 7.886717 4.117313 -15.415599 0
M  V30 8 C 10.496050 8.896679 -7.449883 0
M  V30 9 C 11.831847 7.872898 -4.521638 0
M  V30 10 C 13.175170 9.585465 -5.961390 0
M  V30 11 N 10.131438 7.468702 -7.413104 0 CFG=2 CHG=1
M  V30 12 C 11.152160 6.628494 -6.733301 0
M  V30 13 C 9.448826 4.569298 -9.385721 0
M  V30 14 C 7.999390 6.137115 -11.688516 0
M  V30 15 C 6.634826 5.953051 -16.339988 0
M  V30 16 C 9.772603 6.990313 -8.773844 0
M  V30 17 C 5.856445 5.547461 -19.662941 0
M  V30 18 C 7.125453 4.121206 -17.948110 0
M  V30 19 C 8.567515 4.203691 -13.064978 0
M  V30 20 C 11.038044 6.734131 -5.201109 0
M  V30 21 N 6.334844 5.344531 -18.422995 0 CHG=1
M  V30 22 C 6.028114 4.574199 -20.782786 0
M  V30 23 C 11.870743 9.250641 -5.222160 0 CFG=1
M  V30 24 C 7.335572 6.727570 -12.784638 0
M  V30 25 C 7.290436 6.064975 -14.021080 0
M  V30 26 C 9.340090 4.185239 -10.691641 0
M  V30 27 C 8.840149 5.768772 -8.729205 0
M  V30 28 C 8.617841 4.865810 -11.816655 0
M  V30 29 C 6.081455 6.325974 -17.521654 0
M  V30 30 H 5.034203 8.268819 -17.537469 0
M  V30 31 H 6.153046 7.619666 -15.046012 0
M  V30 32 H 9.758595 9.324667 -5.492359 0
M  V30 33 H 10.635532 10.637749 -6.213303 0
M  V30 34 H 8.358573 3.153252 -15.537630 0
M  V30 35 H 11.372292 9.062355 -8.077877 0
M  V30 36 H 9.646625 9.369284 -7.944503 0
M  V30 37 H 11.435439 8.010728 -3.518966 0
M  V30 38 H 12.834401 7.541327 -4.291570 0
M  V30 39 H 13.325473 8.969417 -6.847065 0
M  V30 40 H 13.171773 10.621124 -6.291594 0
M  V30 41 H 14.042111 9.461020 -5.311189 0
M  V30 42 H 10.984512 5.586838 -7.003091 0
M  V30 43 H 12.155742 6.861600 -7.090151 0
M  V30 44 H 10.033258 3.943407 -8.727176 0
M  V30 45 H 8.034873 6.665543 -10.774279 0
M  V30 46 H 10.687320 6.776975 -9.330973 0
M  V30 47 H 9.270108 7.777410 -9.335993 0
M  V30 48 H 8.078705 4.049128 -18.471720 0
M  V30 49 H 6.524006 3.214205 -18.012813 0
M  V30 50 H 9.035678 3.237221 -13.175128 0
M  V30 51 H 9.984869 6.798884 -4.927366 0
M  V30 52 H 11.379627 5.795673 -4.762170 0
M  V30 53 H 7.092310 4.397463 -20.941246 0
M  V30 54 H 5.522008 3.644097 -20.519985 0
M  V30 55 H 11.842526 9.968806 -4.401029 0
M  V30 56 H 6.868368 7.695026 -12.671309 0
M  V30 57 H 9.834833 3.271089 -10.969460 0
M  V30 58 H 7.801989 5.900890 -8.996962 0
M  V30 59 H 8.721752 5.462345 -7.689361 0
M  V30 60 H 5.583790 4.996478 -21.684553 0
M  V30 61 H 9.274316 7.399160 -6.880089 0
M  V30 END ATOM
M  V30 BEGIN BOND
M  V30 1 1 4 1
M  V30 2 2 7 5
M  V30 3 1 7 6
M  V30 4 1 8 3
M  V30 5 1 11 8
M  V30 6 1 12 11
M  V30 7 1 15 2
M  V30 8 2 15 6
M  V30 9 1 16 11
M  V30 10 1 17 4
M  V30 11 1 18 6
M  V30 12 1 19 5
M  V30 13 1 20 9
M  V30 14 1 20 12
M  V30 15 2 21 17
M  V30 16 1 21 18
M  V30 17 1 22 17
M  V30 18 1 23 3
M  V30 19 1 23 9
M  V30 20 1 23 10
M  V30 21 2 24 14
M  V30 22 2 25 2
M  V30 23 1 25 5
M  V30 24 1 25 24
M  V30 25 2 26 13
M  V30 26 1 27 13
M  V30 27 1 27 16
M  V30 28 1 28 14
M  V30 29 2 28 19
M  V30 30 1 28 26
M  V30 31 2 29 1
M  V30 32 1 29 15
M  V30 33 1 29 21
M  V30 34 1 30 1
M  V30 35 1 31 2
M  V30 36 1 32 3
M  V30 37 1 33 3
M  V30 38 1 34 7
M  V30 39 1 35 8
M  V30 40 1 36 8
M  V30 41 1 37 9
M  V30 42 1 38 9
M  V30 43 1 39 10
M  V30 44 1 40 10
M  V30 45 1 41 10
M  V30 46 1 42 12
M  V30 47 1 43 12
M  V30 48 1 44 13
M  V30 49 1 45 14
M  V30 50 1 46 16
M  V30 51 1 47 16
M  V30 52 1 48 18
M  V30 53 1 49 18
M  V30 54 1 50 19
M  V30 55 1 51 20
M  V30 56 1 52 20
M  V30 57 1 53 22
M  V30 58 1 54 22
M  V30 59 1 23 55 CFG=1
M  V30 60 1 56 24
M  V30 61 1 57 26
M  V30 62 1 58 27
M  V30 63 1 59 27
M  V30 64 1 60 22
M  V30 65 1 11 61 CFG=1
M  V30 END BOND
M  V30 END CTAB
M  END
>  <i_epik_Tot_Q>  (1) 
2

>  <i_epik_Tot_abs_Q>  (1) 
2

>  <i_i_glide_confnum>  (1) 
248

>  <i_i_glide_lignum>  (1) 
183

>  <i_i_glide_posenum>  (1) 
290

>  <i_i_glide_rotatable_bonds>  (1) 
4

>  <i_lp_mmshare_version>  (1) 
72125

>  <i_m_source_file_index>  (1) 
91

>  <i_f3d_flags>  (1) 
0

>  <num_sample>  (1) 
100

>  <b_lp_Chiralities_Consistent>  (1) 
1

>  <r_epik_Charging_Adjusted_Penalty>  (1) 
0.0021252633397680827

>  <r_epik_Ionization_Penalty>  (1) 
0.002125263340211697

>  <r_epik_Ionization_Penalty_Charging>  (1) 
0.0021252633397680827

>  <r_epik_Ionization_Penalty_Neutral>  (1) 
4.4361447992621368e-13

>  <r_epik_State_Penalty>  (1) 
-0

>  <r_glide_ring_energy>  (1) 
0.91701486669719323

>  <r_i_docking_score>  (1) 
-6.8110228279317102

>  <r_i_glide_ecoul>  (1) 
-3.2550034777991899

>  <r_i_glide_eff_state_penalty>  (1) 
-0

>  <r_i_glide_einternal>  (1) 
10.487902398811755

>  <r_i_glide_emodel>  (1) 
-43.290482587723353

>  <r_i_glide_emodel_strain>  (1) 
0.000949688192477538

>  <r_i_glide_energy>  (1) 
-30.595127124142959

>  <r_i_glide_erotb>  (1) 
0.47996519481946287

>  <r_i_glide_esite>  (1) 
-0.026618461626320818

>  <r_i_glide_evdw>  (1) 
-27.34012364634377

>  <r_i_glide_gscore>  (1) 
-6.8110228279317102

>  <r_i_glide_gscore_strain>  (1) 
0

>  <r_i_glide_hbond>  (1) 
0

>  <r_i_glide_ligand_efficiency>  (1) 
-0.23486285613557623

>  <r_i_glide_ligand_efficiency_ln>  (1) 
-1.5595515149594992

>  <r_i_glide_ligand_efficiency_sa>  (1) 
-0.7215731046339654

>  <r_i_glide_lipo>  (1) 
-3.7042868692169666

>  <r_i_glide_metal>  (1) 
-0

>  <r_i_glide_rewards>  (1) 
-1.7048259879208176

>  <r_lp_Energy>  (1) 
52.418757999999997

>  <r_lp_tautomer_probability>  (1) 
1

>  <s_epik_cmdline>  (1) 
J2VwaWtfcHl0aG9uJywgJy1waHQnLCAnMS4wJywgJy1waCcsICc3LjQnLCAnLXRuJywgJzgnLCAnLW1hJywgJzUwMCcsICctaW1hZScsICc8aW5maWxlLm1hZT4nLCAnLW9tYWUnLCAnPG91dGZpbGUubWFlPic=

>  <s_epik_input>  (1) 
W0NIMl09QzFTW0NIXT1DMk4xW0NIMl1jKFtjSF0zKWMyW2NIXWMoYzM0KVtjSF1bY0hdYyhbY0hdNCkvW0NIXT1bQ0hdXFtDSDJdW0NIMl1ONVtDSDJdW0NIMl1bQ0BIXShbQ0gzXSlbQ0gyXVtDSDJdW0NIMl01

>  <s_glide_docking_method>  (1) 
confgen

>  <s_i_glide_gridfile>  (1) 
gpcr_drd2_6luq_protein_autoprepared_prepared

>  <s_lp_Force_Field>  (1) 
S-OPLS

>  <s_lp_Variant>  (1) 
DiffSBDD_90_num_sample_100-3

>  <s_m_source_file>  (1) 
generated__ligand_DiffSBDD_2026-05-06_prepared.sdf

>  <GenAI_Model>  (1) 
DiffSBDD

>  <Protein>  (1) 
generic_title2

$$$$
DiffSBDD_21_num_sample_100
     RDKit          3D

  0  0  0  0  0  0  0  0  0  0999 V3000
M  V30 BEGIN CTAB
M  V30 COUNTS 68 72 0 0 1
M  V30 BEGIN ATOM
M  V30 1 C 6.234908 8.182603 -15.764122 0
M  V30 2 C 7.713426 5.076431 -13.536198 0
M  V30 3 C 11.682931 9.214706 -5.757461 0
M  V30 4 C 7.306358 5.414076 -17.630994 0 CFG=2
M  V30 5 C 9.435005 8.569238 -8.431906 0
M  V30 6 C 9.111758 6.226341 -11.889797 0
M  V30 7 C 8.372946 5.226508 -16.528130 0
M  V30 8 O 7.650968 2.646347 -13.777879 0
M  V30 9 C 11.032847 6.878455 -6.018400 0
M  V30 10 C 7.127763 4.069179 -18.390582 0
M  V30 11 C 6.822925 6.168364 -13.528000 0
M  V30 12 O 10.234813 6.238976 -11.103612 0
M  V30 13 C 8.354013 3.921672 -15.698900 0
M  V30 14 F 11.841259 10.457327 -6.273049 0
M  V30 15 C 10.689574 7.411606 -10.431065 0
M  V30 16 C 5.317001 7.238502 -19.261539 0
M  V30 17 C 8.218822 7.309889 -11.891261 0
M  V30 18 C 11.835945 7.684854 -3.864401 0
M  V30 19 F 5.434431 8.446049 -18.721513 0
M  V30 20 S 7.985132 6.569140 -18.858362 0
M  V30 21 C 5.583114 6.158949 -14.393395 0
M  V30 22 C 7.078413 7.275102 -12.694271 0
M  V30 23 O 9.711904 4.051767 -12.680937 0
M  V30 24 C 7.459115 3.872791 -14.447474 0 CFG=2
M  V30 25 F 12.146104 7.452080 -2.564211 0
M  V30 26 C 12.001573 8.970622 -4.406359 0
M  V30 27 C 6.603138 6.850145 -19.997063 0
M  V30 28 F 4.354846 7.321211 -20.177234 0
M  V30 29 C 4.897129 6.191060 -18.214472 0
M  V30 30 C 11.349410 6.641755 -4.668962 0
M  V30 31 C 10.868368 8.429248 -8.019528 0 CFG=1
M  V30 32 C 5.926215 5.896490 -17.070085 0 CFG=2
M  V30 33 C 5.660816 6.793956 -15.806519 0 CFG=2
M  V30 34 C 11.199456 8.166932 -6.576928 0
M  V30 35 C 10.245944 7.424712 -8.981275 0 CFG=1
M  V30 36 C 8.854578 5.106408 -12.701590 0
M  V30 37 H 7.066194 8.290223 -15.076103 0
M  V30 38 H 6.634797 8.503876 -16.691667 0
M  V30 39 H 5.469233 8.908327 -15.491262 0
M  V30 40 H 9.171073 9.355003 -9.133937 0
M  V30 41 H 8.665956 8.318498 -7.702672 0
M  V30 42 H 8.412234 6.101813 -15.882245 0
M  V30 43 H 9.342641 5.226562 -17.028381 0
M  V30 44 H 8.454531 2.741312 -13.276734 0
M  V30 45 H 10.659031 6.069909 -6.623919 0
M  V30 46 H 6.636073 3.308757 -17.786054 0
M  V30 47 H 6.521689 4.160340 -19.289324 0
M  V30 48 H 8.090976 3.660903 -18.698339 0
M  V30 49 H 9.383454 3.822666 -15.383215 0
M  V30 50 H 8.188144 3.032973 -16.303049 0
M  V30 51 H 11.778104 7.372616 -10.435679 0
M  V30 52 H 10.452846 8.345888 -10.937814 0
M  V30 53 H 8.395196 8.165801 -11.260873 0
M  V30 54 H 5.035889 5.221726 -14.354596 0
M  V30 55 H 4.955007 6.818033 -13.805495 0
M  V30 56 H 6.393744 8.100598 -12.671824 0
M  V30 57 H 10.575159 4.276914 -12.362269 0
M  V30 58 H 6.435627 3.812200 -14.787508 0
M  V30 59 H 12.374453 9.771549 -3.786015 0
M  V30 60 H 6.893033 7.636526 -20.696349 0
M  V30 61 H 6.439209 5.952897 -20.596502 0
M  V30 62 H 3.916920 6.465046 -17.820747 0
M  V30 63 H 4.707472 5.278702 -18.768512 0
M  V30 64 H 11.220578 5.657071 -4.251356 0
M  V30 65 H 11.572730 9.141486 -8.445093 0
M  V30 66 H 5.709206 4.969316 -16.584661 0
M  V30 67 H 4.606597 7.017813 -15.937103 0
M  V30 68 H 9.979441 6.440071 -8.606439 0
M  V30 END ATOM
M  V30 BEGIN BOND
M  V30 1 1 7 4
M  V30 2 1 4 10 CFG=3
M  V30 3 2 11 2
M  V30 4 1 12 6
M  V30 5 1 13 7
M  V30 6 1 14 3
M  V30 7 1 15 12
M  V30 8 1 17 6
M  V30 9 1 19 16
M  V30 10 1 20 4
M  V30 11 1 21 11
M  V30 12 1 22 11
M  V30 13 2 22 17
M  V30 14 1 24 2
M  V30 15 1 24 8
M  V30 16 1 24 13
M  V30 17 1 25 18
M  V30 18 1 26 3
M  V30 19 2 26 18
M  V30 20 1 27 16
M  V30 21 1 27 20
M  V30 22 1 28 16
M  V30 23 1 29 16
M  V30 24 2 30 9
M  V30 25 1 30 18
M  V30 26 1 31 5
M  V30 27 1 32 4
M  V30 28 1 32 29
M  V30 29 1 33 1
M  V30 30 1 33 21
M  V30 31 1 33 32
M  V30 32 2 34 3
M  V30 33 1 34 9
M  V30 34 1 34 31
M  V30 35 1 35 5
M  V30 36 1 35 15
M  V30 37 1 35 31
M  V30 38 1 36 2
M  V30 39 2 36 6
M  V30 40 1 36 23
M  V30 41 1 37 1
M  V30 42 1 38 1
M  V30 43 1 39 1
M  V30 44 1 40 5
M  V30 45 1 41 5
M  V30 46 1 42 7
M  V30 47 1 43 7
M  V30 48 1 44 8
M  V30 49 1 45 9
M  V30 50 1 46 10
M  V30 51 1 47 10
M  V30 52 1 48 10
M  V30 53 1 49 13
M  V30 54 1 50 13
M  V30 55 1 51 15
M  V30 56 1 52 15
M  V30 57 1 53 17
M  V30 58 1 54 21
M  V30 59 1 55 21
M  V30 60 1 56 22
M  V30 61 1 57 23
M  V30 62 1 24 58 CFG=3
M  V30 63 1 59 26
M  V30 64 1 60 27
M  V30 65 1 61 27
M  V30 66 1 62 29
M  V30 67 1 63 29
M  V30 68 1 64 30
M  V30 69 1 31 65 CFG=3
M  V30 70 1 32 66 CFG=1
M  V30 71 1 33 67 CFG=3
M  V30 72 1 35 68 CFG=1
M  V30 END BOND
M  V30 END CTAB
M  END
>  <i_epik_Tot_Q>  (1) 
0

>  <i_epik_Tot_abs_Q>  (1) 
0

>  <i_i_glide_confnum>  (1) 
35

>  <i_i_glide_lignum>  (1) 
34

>  <i_i_glide_posenum>  (1) 
152

>  <i_i_glide_rotatable_bonds>  (1) 
6

>  <i_lp_mmshare_version>  (1) 
72125

>  <i_m_source_file_index>  (1) 
22

>  <i_f3d_flags>  (1) 
0

>  <num_sample>  (1) 
100

>  <b_lp_Chiralities_Consistent>  (1) 
1

>  <r_epik_Charging_Adjusted_Penalty>  (1) 
0

>  <r_epik_Ionization_Penalty>  (1) 
0.0009051571753108589

>  <r_epik_Ionization_Penalty_Charging>  (1) 
0

>  <r_epik_Ionization_Penalty_Neutral>  (1) 
0.0009051571753108589

>  <r_epik_State_Penalty>  (1) 
-0

>  <r_glide_ring_energy>  (1) 
0

>  <r_i_docking_score>  (1) 
-6.7962000765595461

>  <r_i_glide_ecoul>  (1) 
-1.6216865151000233

>  <r_i_glide_eff_state_penalty>  (1) 
-0

>  <r_i_glide_einternal>  (1) 
4.6829208295947655

>  <r_i_glide_emodel>  (1) 
-38.945300896148794

>  <r_i_glide_emodel_strain>  (1) 
3.2198883729276133

>  <r_i_glide_energy>  (1) 
-24.677933057736141

>  <r_i_glide_erotb>  (1) 
0.29906164395455315

>  <r_i_glide_esite>  (1) 
0

>  <r_i_glide_evdw>  (1) 
-23.056246542636117

>  <r_i_glide_gscore>  (1) 
-6.7962000765595461

>  <r_i_glide_gscore_strain>  (1) 
0

>  <r_i_glide_hbond>  (1) 
-0.12539615992666292

>  <r_i_glide_ligand_efficiency>  (1) 
-0.18878333545998738

>  <r_i_glide_ligand_efficiency_ln>  (1) 
-1.4827472445982179

>  <r_i_glide_ligand_efficiency_sa>  (1) 
-0.62334883949254771

>  <r_i_glide_lipo>  (1) 
-3.8118728619024336

>  <r_i_glide_metal>  (1) 
-0

>  <r_i_glide_rewards>  (1) 
-1.7619273942881923

>  <r_lp_Energy>  (1) 
74.349186000000003

>  <r_lp_tautomer_probability>  (1) 
1

>  <s_epik_cmdline>  (1) 
J2VwaWtfcHl0aG9uJywgJy1waHQnLCAnMS4wJywgJy1waCcsICc3LjQnLCAnLXRuJywgJzgnLCAnLW1hJywgJzUwMCcsICctaW1hZScsICc8aW5maWxlLm1hZT4nLCAnLW9tYWUnLCAnPG91dGZpbGUubWFlPic=

>  <s_epik_input>  (1) 
UzFbQ0gyXUMoRikoRilbQ0gyXVtDQEhdKFtDQEBdMTJbQ0gzXSlbQ0BIXShbQ0gzXSlbQ0gyXWMzYyhbQ0BIXShbT0hdKVtDSDJdW0NIMl0yKWMoW09IXSljKFtjSF1bY0hdMylPW0NIMl1bQ0BASF00W0NIMl1bQ0hdNGM1W2NIXVtjSF1jKEYpW2NIXWM1Rg==

>  <s_glide_docking_method>  (1) 
confgen

>  <s_i_glide_gridfile>  (1) 
gpcr_drd2_6luq_protein_autoprepared_prepared

>  <s_lp_Force_Field>  (1) 
S-OPLS

>  <s_lp_Variant>  (1) 
DiffSBDD_21_num_sample_100-2

>  <s_m_source_file>  (1) 
generated__ligand_DiffSBDD_2026-05-06_prepared.sdf

>  <GenAI_Model>  (1) 
DiffSBDD

>  <Protein>  (1) 
generic_title2

$$$$
DiffSBDD_27_num_sample_100
     RDKit          3D

  0  0  0  0  0  0  0  0  0  0999 V3000
M  V30 BEGIN CTAB
M  V30 COUNTS 57 57 0 0 1
M  V30 BEGIN ATOM
M  V30 1 C 12.246219 8.530560 -3.886805 0 CFG=2
M  V30 2 C 9.556263 6.118699 -10.004121 0
M  V30 3 N 11.561773 9.768635 -3.563670 0
M  V30 4 C 7.450674 0.142827 -13.551189 0
M  V30 5 C 11.442213 6.475364 -3.071114 0
M  V30 6 C 10.661166 7.975596 -8.687980 0
M  V30 7 N 7.300543 5.366250 -10.261832 0 CHG=1
M  V30 8 C 8.167265 3.820853 -12.862938 0
M  V30 9 C 7.200408 1.640510 -13.760232 0
M  V30 10 C 5.825866 1.966781 -13.156362 0
M  V30 11 C 8.556382 5.578527 -11.006255 0 CFG=2
M  V30 12 C 9.053196 4.287357 -11.692521 0
M  V30 13 C 11.442779 7.777756 -4.988602 0
M  V30 14 C 9.434995 6.702261 -6.920975 0
M  V30 15 C 12.261595 7.577320 -2.649103 0
M  V30 16 O 12.847958 7.761641 -1.588055 0
M  V30 17 C 11.345002 8.218212 -6.271297 0
M  V30 18 N 8.280066 2.354051 -13.041094 0 CHG=1
M  V30 19 N 10.519281 7.628404 -7.255341 0
M  V30 20 C 11.024769 6.592166 -4.304538 0
M  V30 21 C 12.120322 9.444439 -6.743098 0
M  V30 22 C 7.232817 1.960139 -15.266471 0
M  V30 23 C 9.672800 7.419916 -9.697786 0
M  V30 24 H 13.271793 8.732376 -4.195822 0
M  V30 25 H 10.198750 5.396901 -9.515280 0
M  V30 26 H 10.612084 9.607176 -3.274610 0
M  V30 27 H 12.009295 10.243086 -2.790565 0
M  V30 28 H 8.401558 -0.191311 -13.972113 0
M  V30 29 H 7.442898 -0.119874 -12.491530 0
M  V30 30 H 6.661228 -0.446962 -14.020238 0
M  V30 31 H 11.216805 5.652764 -2.416691 0
M  V30 32 H 10.600484 9.057151 -8.805094 0
M  V30 33 H 11.658881 7.676314 -9.018826 0
M  V30 34 H 7.034744 6.293492 -9.885756 0
M  V30 35 H 6.560608 5.043063 -10.860669 0
M  V30 36 H 7.139323 4.114978 -12.661062 0
M  V30 37 H 8.451952 4.315613 -13.792041 0
M  V30 38 H 5.463137 2.952163 -13.447930 0
M  V30 39 H 5.070822 1.259698 -13.490803 0
M  V30 40 H 5.852173 1.905868 -12.069398 0
M  V30 41 H 8.361473 6.344371 -11.759835 0
M  V30 42 H 10.071762 4.423446 -12.061105 0
M  V30 43 H 9.117554 3.501761 -10.941442 0
M  V30 44 H 9.020383 6.902667 -5.932685 0
M  V30 45 H 8.579322 6.800239 -7.583697 0
M  V30 46 H 9.787486 5.677746 -6.969092 0
M  V30 47 H 9.165160 2.143266 -13.479288 0
M  V30 48 H 10.410158 5.842940 -4.767657 0
M  V30 49 H 12.526184 9.353950 -7.746216 0
M  V30 50 H 11.444493 10.298177 -6.706936 0
M  V30 51 H 12.980534 9.673962 -6.114571 0
M  V30 52 H 8.204064 1.711831 -15.694548 0
M  V30 53 H 6.481415 1.377285 -15.800685 0
M  V30 54 H 7.024710 3.009616 -15.480308 0
M  V30 55 H 9.032026 8.140429 -10.185406 0
M  V30 56 H 8.316145 1.946747 -12.114354 0
M  V30 57 H 7.437360 4.740686 -9.480961 0
M  V30 END ATOM
M  V30 BEGIN BOND
M  V30 1 1 3 1
M  V30 2 1 9 4
M  V30 3 1 10 9
M  V30 4 1 11 2
M  V30 5 1 11 7
M  V30 6 1 12 8
M  V30 7 1 12 11
M  V30 8 1 13 1
M  V30 9 1 15 1
M  V30 10 1 15 5
M  V30 11 2 16 15
M  V30 12 2 17 13
M  V30 13 1 18 8
M  V30 14 1 18 9
M  V30 15 1 19 6
M  V30 16 1 19 14
M  V30 17 1 19 17
M  V30 18 2 20 5
M  V30 19 1 20 13
M  V30 20 1 21 17
M  V30 21 1 22 9
M  V30 22 2 23 2
M  V30 23 1 23 6
M  V30 24 1 1 24 CFG=3
M  V30 25 1 25 2
M  V30 26 1 26 3
M  V30 27 1 27 3
M  V30 28 1 28 4
M  V30 29 1 29 4
M  V30 30 1 30 4
M  V30 31 1 31 5
M  V30 32 1 32 6
M  V30 33 1 33 6
M  V30 34 1 34 7
M  V30 35 1 35 7
M  V30 36 1 36 8
M  V30 37 1 37 8
M  V30 38 1 38 10
M  V30 39 1 39 10
M  V30 40 1 40 10
M  V30 41 1 11 41 CFG=3
M  V30 42 1 42 12
M  V30 43 1 43 12
M  V30 44 1 44 14
M  V30 45 1 45 14
M  V30 46 1 46 14
M  V30 47 1 47 18
M  V30 48 1 48 20
M  V30 49 1 49 21
M  V30 50 1 50 21
M  V30 51 1 51 21
M  V30 52 1 52 22
M  V30 53 1 53 22
M  V30 54 1 54 22
M  V30 55 1 55 23
M  V30 56 1 56 18
M  V30 57 1 57 7
M  V30 END BOND
M  V30 END CTAB
M  END
>  <i_epik_Tot_Q>  (1) 
2

>  <i_epik_Tot_abs_Q>  (1) 
2

>  <i_i_glide_confnum>  (1) 
63

>  <i_i_glide_lignum>  (1) 
43

>  <i_i_glide_posenum>  (1) 
296

>  <i_i_glide_rotatable_bonds>  (1) 
8

>  <i_lp_mmshare_version>  (1) 
72125

>  <i_m_source_file_index>  (1) 
28

>  <i_f3d_flags>  (1) 
0

>  <num_sample>  (1) 
100

>  <b_lp_Chiralities_Consistent>  (1) 
1

>  <r_epik_Charging_Adjusted_Penalty>  (1) 
0.47954930221194114

>  <r_epik_Ionization_Penalty>  (1) 
0.082650424812652987

>  <r_epik_Ionization_Penalty_Charging>  (1) 
0.068869463259337155

>  <r_epik_Ionization_Penalty_Neutral>  (1) 
0.013780961553315832

>  <r_epik_State_Penalty>  (1) 
0.41067983895260396

>  <r_glide_ring_energy>  (1) 
0

>  <r_i_docking_score>  (1) 
-6.7953299871649699

>  <r_i_glide_ecoul>  (1) 
-13.210703540406994

>  <r_i_glide_eff_state_penalty>  (1) 
0.41067983895260396

>  <r_i_glide_einternal>  (1) 
7.9468200676596741

>  <r_i_glide_emodel>  (1) 
-61.775218164055005

>  <r_i_glide_emodel_strain>  (1) 
2.006576773142811

>  <r_i_glide_energy>  (1) 
-42.73110356458033

>  <r_i_glide_erotb>  (1) 
1.2586724494590871

>  <r_i_glide_esite>  (1) 
-0.10000000000000001

>  <r_i_glide_evdw>  (1) 
-29.520400024173338

>  <r_i_glide_gscore>  (1) 
-7.2060098261175742

>  <r_i_glide_gscore_strain>  (1) 
0

>  <r_i_glide_hbond>  (1) 
-0.20000000000000001

>  <r_i_glide_ligand_efficiency>  (1) 
-0.29544912987673783

>  <r_i_glide_ligand_efficiency_ln>  (1) 
-1.6431724075421581

>  <r_i_glide_ligand_efficiency_sa>  (1) 
-0.84021802468233131

>  <r_i_glide_lipo>  (1) 
-2.2980801984292718

>  <r_i_glide_metal>  (1) 
-0

>  <r_i_glide_rewards>  (1) 
-2.4089765448776732

>  <r_lp_Energy>  (1) 
29.109323

>  <r_lp_tautomer_probability>  (1) 
0.5

>  <s_epik_cmdline>  (1) 
J2VwaWtfcHl0aG9uJywgJy1waHQnLCAnMS4wJywgJy1waCcsICc3LjQnLCAnLXRuJywgJzgnLCAnLW1hJywgJzUwMCcsICctaW1hZScsICc8aW5maWxlLm1hZT4nLCAnLW9tYWUnLCAnPG91dGZpbGUubWFlPic=

>  <s_epik_input>  (1) 
Tz1DMVtDSF09W0NIXUMoXFtDQEhdMVtOSDJdKT1DKFtDSDNdKS9OKFtDSDNdKVtDSDJdXFtDSF09W0NIXVxbQ0BIXShbTkgyXSlbQ0gyXVtDSDJdW05IXUMoW0NIM10pKFtDSDNdKVtDSDNd

>  <s_glide_docking_method>  (1) 
confgen

>  <s_i_glide_gridfile>  (1) 
gpcr_drd2_6luq_protein_autoprepared_prepared

>  <s_lp_Force_Field>  (1) 
S-OPLS

>  <s_lp_Variant>  (1) 
DiffSBDD_27_num_sample_100-1

>  <s_m_source_file>  (1) 
generated__ligand_DiffSBDD_2026-05-06_prepared.sdf

>  <GenAI_Model>  (1) 
DiffSBDD

>  <Protein>  (1) 
generic_title2

$$$$
DiffSBDD_35_num_sample_100
     RDKit          3D

  0  0  0  0  0  0  0  0  0  0999 V3000
M  V30 BEGIN CTAB
M  V30 COUNTS 57 63 0 0 1
M  V30 BEGIN ATOM
M  V30 1 C 11.341881 8.227693 -8.620694 0
M  V30 2 C 5.463839 7.216758 -15.466323 0
M  V30 3 N 8.497405 5.388422 -12.553707 0
M  V30 4 C 8.148249 5.110298 -16.956479 0
M  V30 5 C 6.752065 6.099188 -18.710843 0
M  V30 6 S 9.519872 4.080897 -16.735336 0
M  V30 7 C 10.005692 6.752693 -10.201518 0
M  V30 8 C 9.872634 3.600239 -21.028381 0
M  V30 9 C 10.064646 7.098310 -6.373351 0
M  V30 10 C 10.367551 7.224882 -8.798604 0
M  V30 11 C 6.266107 6.563300 -16.436762 0
M  V30 12 C 6.088793 5.022565 -11.634815 0
M  V30 13 C 7.576219 5.632115 -14.580969 0
M  V30 14 N 6.015103 6.702608 -17.746193 0
M  V30 15 C 8.826387 4.492680 -19.213525 0
M  V30 16 C 9.780608 3.801102 -18.406329 0
M  V30 17 C 7.341589 5.761057 -15.987797 0
M  V30 18 N 10.809803 2.915780 -20.358417 0
M  V30 19 C 10.757472 3.023484 -19.022221 0
M  V30 20 C 7.861675 5.268038 -18.368852 0
M  V30 21 C 7.127279 5.983071 -12.268803 0 CFG=2
M  V30 22 C 11.035011 8.101226 -6.201991 0
M  V30 23 N 8.243947 5.369302 -9.240955 0 CHG=1
M  V30 24 C 9.164479 4.629887 -11.502547 0
M  V30 25 O 5.102853 5.768563 -10.954652 0
M  V30 26 N 8.885410 4.384171 -20.551543 0
M  V30 27 C 8.663734 4.837643 -13.959055 0
M  V30 28 C 5.725820 7.051710 -14.088908 0
M  V30 29 C 9.407867 5.336602 -10.146989 0 CFG=1
M  V30 30 C 11.675429 8.662750 -7.323002 0
M  V30 31 C 6.786691 6.246206 -13.688839 0
M  V30 32 C 9.726780 6.655500 -7.667042 0
M  V30 33 C 8.677918 5.559351 -7.841181 0
M  V30 34 H 11.834146 8.663197 -9.478431 0
M  V30 35 H 4.640202 7.839617 -15.784654 0
M  V30 36 H 6.468208 6.270564 -19.738366 0
M  V30 37 H 10.880163 6.793595 -10.850315 0
M  V30 38 H 9.284339 7.455332 -10.622408 0
M  V30 39 H 9.913617 3.510306 -22.103546 0
M  V30 40 H 9.579148 6.665569 -5.511035 0
M  V30 41 H 6.537980 4.359546 -10.900469 0
M  V30 42 H 5.627964 4.370112 -12.378647 0
M  V30 43 H 11.497512 2.485271 -18.448072 0
M  V30 44 H 7.225713 6.910098 -11.702579 0
M  V30 45 H 11.292754 8.438188 -5.208675 0
M  V30 46 H 7.682019 6.193606 -9.479117 0
M  V30 47 H 8.647589 3.684562 -11.342963 0
M  V30 48 H 10.144891 4.344509 -11.888860 0
M  V30 49 H 4.826830 5.295049 -10.180708 0
M  V30 50 H 8.452516 3.768589 -14.006318 0
M  V30 51 H 9.662156 5.075168 -14.325937 0
M  V30 52 H 5.103801 7.540434 -13.352344 0
M  V30 53 H 10.125392 4.690556 -9.641493 0
M  V30 54 H 12.423047 9.426772 -7.186366 0
M  V30 55 H 9.098991 4.619403 -7.492502 0
M  V30 56 H 7.833453 5.769095 -7.194879 0
M  V30 57 H 7.685576 4.533919 -9.316200 0
M  V30 END ATOM
M  V30 BEGIN BOND
M  V30 1 1 6 4
M  V30 2 2 10 1
M  V30 3 1 10 7
M  V30 4 1 11 2
M  V30 5 1 14 5
M  V30 6 2 14 11
M  V30 7 1 16 6
M  V30 8 1 16 15
M  V30 9 2 17 4
M  V30 10 1 17 11
M  V30 11 1 17 13
M  V30 12 2 18 8
M  V30 13 2 19 16
M  V30 14 1 19 18
M  V30 15 1 20 4
M  V30 16 2 20 5
M  V30 17 1 20 15
M  V30 18 1 21 3
M  V30 19 1 21 12
M  V30 20 1 22 9
M  V30 21 1 24 3
M  V30 22 1 25 12
M  V30 23 1 26 8
M  V30 24 2 26 15
M  V30 25 1 27 3
M  V30 26 1 27 13
M  V30 27 2 28 2
M  V30 28 1 29 7
M  V30 29 1 29 23
M  V30 30 1 29 24
M  V30 31 1 30 1
M  V30 32 2 30 22
M  V30 33 2 31 13
M  V30 34 1 31 21
M  V30 35 1 31 28
M  V30 36 2 32 9
M  V30 37 1 32 10
M  V30 38 1 33 23
M  V30 39 1 33 32
M  V30 40 1 34 1
M  V30 41 1 35 2
M  V30 42 1 36 5
M  V30 43 1 37 7
M  V30 44 1 38 7
M  V30 45 1 39 8
M  V30 46 1 40 9
M  V30 47 1 41 12
M  V30 48 1 42 12
M  V30 49 1 43 19
M  V30 50 1 21 44 CFG=1
M  V30 51 1 45 22
M  V30 52 1 46 23
M  V30 53 1 47 24
M  V30 54 1 48 24
M  V30 55 1 49 25
M  V30 56 1 50 27
M  V30 57 1 51 27
M  V30 58 1 52 28
M  V30 59 1 29 53 CFG=1
M  V30 60 1 54 30
M  V30 61 1 55 33
M  V30 62 1 56 33
M  V30 63 1 57 23
M  V30 END BOND
M  V30 END CTAB
M  END
>  <i_epik_Tot_Q>  (1) 
1

>  <i_epik_Tot_abs_Q>  (1) 
1

>  <i_i_glide_confnum>  (1) 
98

>  <i_i_glide_lignum>  (1) 
63

>  <i_i_glide_posenum>  (1) 
174

>  <i_i_glide_rotatable_bonds>  (1) 
4

>  <i_lp_mmshare_version>  (1) 
72125

>  <i_m_source_file_index>  (1) 
36

>  <i_f3d_flags>  (1) 
0

>  <num_sample>  (1) 
100

>  <b_lp_Chiralities_Consistent>  (1) 
1

>  <r_epik_Charging_Adjusted_Penalty>  (1) 
0.011867444856994655

>  <r_epik_Ionization_Penalty>  (1) 
0.012232925828486813

>  <r_epik_Ionization_Penalty_Charging>  (1) 
0.011867444856994655

>  <r_epik_Ionization_Penalty_Neutral>  (1) 
0.00036548097149215658

>  <r_epik_State_Penalty>  (1) 
-0

>  <r_glide_ring_energy>  (1) 
1.597824353548408

>  <r_i_docking_score>  (1) 
-6.7823972478477836

>  <r_i_glide_ecoul>  (1) 
-7.4641257346117111

>  <r_i_glide_eff_state_penalty>  (1) 
-0

>  <r_i_glide_einternal>  (1) 
7.0994183738571204

>  <r_i_glide_emodel>  (1) 
-62.552314335041622

>  <r_i_glide_emodel_strain>  (1) 
0.84670381562736452

>  <r_i_glide_energy>  (1) 
-43.119690925814588

>  <r_i_glide_erotb>  (1) 
0.29155208343933364

>  <r_i_glide_esite>  (1) 
-0.10000000000000001

>  <r_i_glide_evdw>  (1) 
-35.655565191202875

>  <r_i_glide_gscore>  (1) 
-6.7823972478477836

>  <r_i_glide_gscore_strain>  (1) 
0

>  <r_i_glide_hbond>  (1) 
-0.36116588020813889

>  <r_i_glide_ligand_efficiency>  (1) 
-0.20552718932872072

>  <r_i_glide_ligand_efficiency_ln>  (1) 
-1.5083700305478391

>  <r_i_glide_ligand_efficiency_sa>  (1) 
-0.65923551551942361

>  <r_i_glide_lipo>  (1) 
-2.503834534062602

>  <r_i_glide_metal>  (1) 
-0

>  <r_i_glide_rewards>  (1) 
-1.2065517972644757

>  <r_lp_Energy>  (1) 
68.826070000000001

>  <r_lp_tautomer_probability>  (1) 
1

>  <s_epik_cmdline>  (1) 
J2VwaWtfcHl0aG9uJywgJy1waHQnLCAnMS4wJywgJy1waCcsICc3LjQnLCAnLXRuJywgJzgnLCAnLW1hJywgJzUwMCcsICctaW1hZScsICc8aW5maWxlLm1hZT4nLCAnLW9tYWUnLCAnPG91dGZpbGUubWFlPic=

>  <s_epik_input>  (1) 
W2NIXTFbY0hdW2NIXVtjSF1jKGMxMilbQ0gyXVtOSF1bQ0BIXShbQ0gyXTIpW0NIMl1OKFtDQEBIXTNbQ0gyXVtPSF0pW0NIMl1jNGMzW2NIXVtjSF1jKGM0YzU2KW5bY0hdYzZjN2MoczUpW2NIXW5bY0hdbjc=

>  <s_glide_docking_method>  (1) 
confgen

>  <s_i_glide_gridfile>  (1) 
gpcr_drd2_6luq_protein_autoprepared_prepared

>  <s_lp_Force_Field>  (1) 
S-OPLS

>  <s_lp_Variant>  (1) 
DiffSBDD_35_num_sample_100-1

>  <s_m_source_file>  (1) 
generated__ligand_DiffSBDD_2026-05-06_prepared.sdf

>  <GenAI_Model>  (1) 
DiffSBDD

>  <Protein>  (1) 
generic_title2

$$$$
DiffSBDD_31_num_sample_100
     RDKit          3D

  0  0  0  0  0  0  0  0  0  0999 V3000
M  V30 BEGIN CTAB
M  V30 COUNTS 50 53 0 0 1
M  V30 BEGIN ATOM
M  V30 1 C 9.434625 4.868588 -10.662207 0
M  V30 2 C 10.006550 6.989454 -9.414214 0
M  V30 3 C 10.705267 7.763135 -7.240956 0
M  V30 4 O 12.440296 8.761395 -1.958515 0
M  V30 5 C 7.450951 3.985137 -15.658311 0
M  V30 6 C 6.495766 4.902130 -14.864526 0 CFG=1
M  V30 7 C 11.387413 6.908222 -4.976404 0
M  V30 8 N 9.651298 6.302234 -10.567147 0
M  V30 9 C 11.131655 7.984839 -5.860277 0
M  V30 10 O 12.093088 6.169253 -2.798455 0
M  V30 11 S 10.234957 6.171414 -7.847615 0
M  V30 12 C 11.835856 7.180249 -3.659610 0
M  V30 13 C 8.111481 4.511988 -11.303336 0
M  V30 14 C 6.582255 4.722216 -13.336224 0 CFG=1
M  V30 15 C 7.217885 2.273288 -13.777537 0 CFG=2
M  V30 16 N 10.642272 8.720169 -8.158903 0
M  V30 17 Cl 6.774246 0.584257 -13.421325 0
M  V30 18 C 9.502200 6.921819 -11.885018 0
M  V30 19 C 6.221400 3.232085 -13.086193 0
M  V30 20 N 10.237326 8.296238 -9.383249 0
M  V30 21 C 12.010815 8.505409 -3.232382 0
M  V30 22 C 11.305319 9.308872 -5.412153 0
M  V30 23 C 11.730993 9.562966 -4.106236 0
M  V30 24 C 7.932855 5.138323 -12.688334 0
M  V30 25 C 7.241657 2.499378 -15.296938 0
M  V30 26 C 8.127822 6.651126 -12.502604 0
M  V30 27 Cl 6.594070 6.587458 -15.431269 0
M  V30 28 H 10.234777 4.440327 -11.266034 0
M  V30 29 H 9.492667 4.392945 -9.685512 0
M  V30 30 H 12.721989 9.656075 -1.812140 0
M  V30 31 H 8.485917 4.275711 -15.481735 0
M  V30 32 H 7.279958 4.117735 -16.727611 0
M  V30 33 H 5.482226 4.596032 -15.091791 0
M  V30 34 H 11.256799 5.887300 -5.302482 0
M  V30 35 H 12.268520 6.516180 -1.935861 0
M  V30 36 H 8.167916 3.437061 -11.422565 0
M  V30 37 H 7.277598 4.756906 -10.642499 0
M  V30 38 H 5.795946 5.327981 -12.879605 0
M  V30 39 H 8.224956 2.413513 -13.384402 0
M  V30 40 H 9.646216 8.000959 -11.824112 0
M  V30 41 H 10.286026 6.548442 -12.545477 0
M  V30 42 H 6.138228 3.017858 -12.021002 0
M  V30 43 H 5.217666 3.037532 -13.466403 0
M  V30 44 H 11.102041 10.136698 -6.075882 0
M  V30 45 H 11.834839 10.569315 -3.778332 0
M  V30 46 H 8.748249 4.770864 -13.311303 0
M  V30 47 H 8.019523 1.886227 -15.754535 0
M  V30 48 H 6.290139 2.161672 -15.714688 0
M  V30 49 H 8.093279 7.188046 -13.444590 0
M  V30 50 H 7.338228 7.069352 -11.875606 0
M  V30 END ATOM
M  V30 BEGIN BOND
M  V30 1 1 6 5
M  V30 2 1 8 1
M  V30 3 1 8 2
M  V30 4 1 9 3
M  V30 5 2 9 7
M  V30 6 1 11 2
M  V30 7 1 11 3
M  V30 8 1 12 7
M  V30 9 1 12 10
M  V30 10 1 13 1
M  V30 11 1 14 6
M  V30 12 2 16 3
M  V30 13 1 17 15
M  V30 14 1 18 8
M  V30 15 1 19 14
M  V30 16 1 19 15
M  V30 17 2 20 2
M  V30 18 1 20 16
M  V30 19 1 21 4
M  V30 20 2 21 12
M  V30 21 1 22 9
M  V30 22 1 23 21
M  V30 23 2 23 22
M  V30 24 1 24 13
M  V30 25 1 24 14
M  V30 26 1 25 5
M  V30 27 1 25 15
M  V30 28 1 26 18
M  V30 29 1 26 24
M  V30 30 1 27 6
M  V30 31 1 28 1
M  V30 32 1 29 1
M  V30 33 1 30 4
M  V30 34 1 31 5
M  V30 35 1 32 5
M  V30 36 1 6 33 CFG=3
M  V30 37 1 34 7
M  V30 38 1 35 10
M  V30 39 1 36 13
M  V30 40 1 37 13
M  V30 41 1 14 38 CFG=1
M  V30 42 1 15 39 CFG=1
M  V30 43 1 40 18
M  V30 44 1 41 18
M  V30 45 1 42 19
M  V30 46 1 43 19
M  V30 47 1 44 22
M  V30 48 1 45 23
M  V30 49 1 46 24
M  V30 50 1 47 25
M  V30 51 1 48 25
M  V30 52 1 49 26
M  V30 53 1 50 26
M  V30 END BOND
M  V30 END CTAB
M  END
>  <i_epik_Tot_Q>  (1) 
0

>  <i_epik_Tot_abs_Q>  (1) 
0

>  <i_i_glide_confnum>  (1) 
19

>  <i_i_glide_lignum>  (1) 
56

>  <i_i_glide_posenum>  (1) 
252

>  <i_i_glide_rotatable_bonds>  (1) 
5

>  <i_lp_mmshare_version>  (1) 
72125

>  <i_m_source_file_index>  (1) 
32

>  <i_f3d_flags>  (1) 
0

>  <num_sample>  (1) 
100

>  <b_lp_Chiralities_Consistent>  (1) 
1

>  <r_epik_Charging_Adjusted_Penalty>  (1) 
0.030402742638392096

>  <r_epik_Ionization_Penalty>  (1) 
0.030794834145842404

>  <r_epik_Ionization_Penalty_Charging>  (1) 
0

>  <r_epik_Ionization_Penalty_Neutral>  (1) 
0.030794834145842404

>  <r_epik_State_Penalty>  (1) 
0.030402742638392096

>  <r_glide_ring_energy>  (1) 
1.1497114933671595

>  <r_i_docking_score>  (1) 
-6.7664836994830706

>  <r_i_glide_ecoul>  (1) 
-2.0257960496440028

>  <r_i_glide_eff_state_penalty>  (1) 
0.030402742638392096

>  <r_i_glide_einternal>  (1) 
20.329885913930983

>  <r_i_glide_emodel>  (1) 
-40.0072745738305

>  <r_i_glide_emodel_strain>  (1) 
0.0068570558165035322

>  <r_i_glide_energy>  (1) 
-38.946102027168614

>  <r_i_glide_erotb>  (1) 
0.32471647886420552

>  <r_i_glide_esite>  (1) 
-0.11652697641444963

>  <r_i_glide_evdw>  (1) 
-36.920305977524613

>  <r_i_glide_gscore>  (1) 
-6.7968864421214628

>  <r_i_glide_gscore_strain>  (1) 
0

>  <r_i_glide_hbond>  (1) 
-0.28250298848041672

>  <r_i_glide_ligand_efficiency>  (1) 
-0.25061050738826185

>  <r_i_glide_ligand_efficiency_ln>  (1) 
-1.5751258510374382

>  <r_i_glide_ligand_efficiency_sa>  (1) 
-0.75183152216478577

>  <r_i_glide_lipo>  (1) 
-3.3996221049679383

>  <r_i_glide_metal>  (1) 
-0

>  <r_i_glide_rewards>  (1) 
-1.173066144800033

>  <r_lp_Energy>  (1) 
30.5136

>  <r_lp_tautomer_probability>  (1) 
0.99999999999977596

>  <s_epik_cmdline>  (1) 
J2VwaWtfcHl0aG9uJywgJy1waHQnLCAnMS4wJywgJy1waCcsICc3LjQnLCAnLXRuJywgJzgnLCAnLW1hJywgJzUwMCcsICctaW1hZScsICc8aW5maWxlLm1hZT4nLCAnLW9tYWUnLCAnPG91dGZpbGUubWFlPic=

>  <s_epik_input>  (1) 
Q2xbQ0BIXTFbQ0gyXVtDSDJdW0NASF0oQ2wpW0NIMl1bQ0BIXTFbQ0hdKFtDSDJdW0NIMl0yKVtDSDJdW0NIMl1OMmMzc2Mobm4zKS1jNFtjSF1jKFtPSF0pYyhbT0hdKVtjSF1bY0hdNA==

>  <s_glide_docking_method>  (1) 
confgen

>  <s_i_glide_gridfile>  (1) 
gpcr_drd2_6luq_protein_autoprepared_prepared

>  <s_lp_Force_Field>  (1) 
S-OPLS

>  <s_lp_Variant>  (1) 
DiffSBDD_31_num_sample_100-1

>  <s_m_source_file>  (1) 
generated__ligand_DiffSBDD_2026-05-06_prepared.sdf

>  <GenAI_Model>  (1) 
DiffSBDD

>  <Protein>  (1) 
generic_title2

$$$$
DiffSBDD_72_num_sample_100
     RDKit          3D

  0  0  0  0  0  0  0  0  0  0999 V3000
M  V30 BEGIN CTAB
M  V30 COUNTS 32 34 0 0 1
M  V30 BEGIN ATOM
M  V30 1 C 9.834838 7.020605 -10.012060 0
M  V30 2 C 11.461957 7.376481 -4.458318 0
M  V30 3 C 12.018565 8.431591 -8.931484 0
M  V30 4 C 9.834842 7.375307 -8.650681 0
M  V30 5 C 10.912127 8.455311 -6.625634 0 CFG=2
M  V30 6 C 11.929295 9.552252 -6.182165 0
M  V30 7 N 11.024826 7.289852 -5.757727 0
M  V30 8 C 10.921170 7.369302 -10.831539 0
M  V30 9 C 11.434795 6.169302 -3.631428 0
M  V30 10 C 10.924563 8.081312 -8.103703 0
M  V30 11 F 10.921857 7.016213 -12.139030 0
M  V30 12 C 12.012999 8.074775 -10.291631 0
M  V30 13 C 11.997129 9.769301 -4.649743 0
M  V30 14 C 11.994065 6.839053 -2.291697 0
M  V30 15 C 12.323426 8.389329 -2.500276 0
M  V30 16 C 11.898164 8.462194 -3.916797 0
M  V30 17 H 8.996827 6.479353 -10.427306 0
M  V30 18 H 12.860415 8.969293 -8.529237 0
M  V30 19 H 8.995287 7.105589 -8.024754 0
M  V30 20 H 9.916662 8.859313 -6.434883 0
M  V30 21 H 12.934854 9.252201 -6.471033 0
M  V30 22 H 11.734787 10.495766 -6.691635 0
M  V30 23 H 10.422920 5.781466 -3.524486 0
M  V30 24 H 12.848952 8.340207 -10.921449 0
M  V30 25 H 12.972432 10.169304 -4.391760 0
M  V30 26 H 11.217504 10.447516 -4.300886 0
M  V30 27 H 12.884590 6.306277 -1.956700 0
M  V30 28 H 11.255500 6.724316 -1.497126 0
M  V30 29 H 11.724161 9.042352 -1.865259 0
M  V30 30 H 13.383412 8.617214 -2.383202 0
M  V30 31 H 12.101966 5.408230 -4.029806 0
M  V30 32 H 10.682321 6.407658 -6.112334 0
M  V30 END ATOM
M  V30 BEGIN BOND
M  V30 1 2 4 1
M  V30 2 1 6 5
M  V30 3 1 7 2
M  V30 4 1 7 5
M  V30 5 1 8 1
M  V30 6 1 9 2
M  V30 7 2 10 3
M  V30 8 1 10 4
M  V30 9 1 10 5
M  V30 10 1 11 8
M  V30 11 1 12 3
M  V30 12 2 12 8
M  V30 13 1 13 6
M  V30 14 1 14 9
M  V30 15 1 15 14
M  V30 16 2 16 2
M  V30 17 1 16 13
M  V30 18 1 16 15
M  V30 19 1 17 1
M  V30 20 1 18 3
M  V30 21 1 19 4
M  V30 22 1 5 20 CFG=1
M  V30 23 1 21 6
M  V30 24 1 22 6
M  V30 25 1 23 9
M  V30 26 1 24 12
M  V30 27 1 25 13
M  V30 28 1 26 13
M  V30 29 1 27 14
M  V30 30 1 28 14
M  V30 31 1 29 15
M  V30 32 1 30 15
M  V30 33 1 31 9
M  V30 34 1 32 7
M  V30 END BOND
M  V30 END CTAB
M  END
>  <i_epik_Tot_Q>  (1) 
0

>  <i_epik_Tot_abs_Q>  (1) 
0

>  <i_i_glide_confnum>  (1) 
4

>  <i_i_glide_lignum>  (1) 
145

>  <i_i_glide_posenum>  (1) 
3

>  <i_i_glide_rotatable_bonds>  (1) 
1

>  <i_lp_mmshare_version>  (1) 
72125

>  <i_m_source_file_index>  (1) 
73

>  <i_f3d_flags>  (1) 
0

>  <num_sample>  (1) 
100

>  <b_lp_Chiralities_Consistent>  (1) 
1

>  <r_epik_Charging_Adjusted_Penalty>  (1) 
0.00012261153731157732

>  <r_epik_Ionization_Penalty>  (1) 
0.00096767274994002245

>  <r_epik_Ionization_Penalty_Charging>  (1) 
0.00012261153731157732

>  <r_epik_Ionization_Penalty_Neutral>  (1) 
0.00084506121262844516

>  <r_epik_State_Penalty>  (1) 
-0

>  <r_glide_ring_energy>  (1) 
0

>  <r_i_docking_score>  (1) 
-6.7473853767034635

>  <r_i_glide_ecoul>  (1) 
-0.93368172038764619

>  <r_i_glide_eff_state_penalty>  (1) 
-0

>  <r_i_glide_einternal>  (1) 
2.5117328459919532

>  <r_i_glide_emodel>  (1) 
-36.479243997067556

>  <r_i_glide_emodel_strain>  (1) 
0

>  <r_i_glide_energy>  (1) 
-26.677272260634176

>  <r_i_glide_erotb>  (1) 
0.35536468767402363

>  <r_i_glide_esite>  (1) 
0

>  <r_i_glide_evdw>  (1) 
-25.743590540246529

>  <r_i_glide_gscore>  (1) 
-6.7473853767034635

>  <r_i_glide_gscore_strain>  (1) 
0

>  <r_i_glide_hbond>  (1) 
0

>  <r_i_glide_ligand_efficiency>  (1) 
-0.42171158604396647

>  <r_i_glide_ligand_efficiency_ln>  (1) 
-1.7885292761776452

>  <r_i_glide_ligand_efficiency_sa>  (1) 
-1.0626466084826929

>  <r_i_glide_lipo>  (1) 
-2.6684828494377522

>  <r_i_glide_metal>  (1) 
-0

>  <r_i_glide_rewards>  (1) 
-3.0070354298692612

>  <r_lp_Energy>  (1) 
12.315507

>  <r_lp_tautomer_probability>  (1) 
1

>  <s_epik_Chemistry_Notes>  (1) 
This compound has an imine and may undergo hydrolysis.

>  <s_epik_cmdline>  (1) 
J2VwaWtfcHl0aG9uJywgJy1waHQnLCAnMS4wJywgJy1waCcsICc3LjQnLCAnLXRuJywgJzgnLCAnLW1hJywgJzUwMCcsICctaW1hZScsICc8aW5maWxlLm1hZT4nLCAnLW9tYWUnLCAnPG91dGZpbGUubWFlPic=

>  <s_epik_input>  (1) 
RmMxW2NIXVtjSF1jKFtjSF1bY0hdMSlbQ0BIXShOMilbQ0gyXVtDSDJdW0NASF0oQz0yMylbQ0gyXVtDSDJdW0NIMl0z

>  <s_glide_docking_method>  (1) 
confgen

>  <s_i_glide_gridfile>  (1) 
gpcr_drd2_6luq_protein_autoprepared_prepared

>  <s_lp_Force_Field>  (1) 
S-OPLS

>  <s_lp_Variant>  (1) 
DiffSBDD_72_num_sample_100-2

>  <s_m_source_file>  (1) 
generated__ligand_DiffSBDD_2026-05-06_prepared.sdf

>  <GenAI_Model>  (1) 
DiffSBDD

>  <Protein>  (1) 
generic_title2

$$$$
DiffSBDD_55_num_sample_100
     RDKit          3D

  0  0  0  0  0  0  0  0  0  0999 V3000
M  V30 BEGIN CTAB
M  V30 COUNTS 51 54 0 0 1
M  V30 BEGIN ATOM
M  V30 1 O 8.516444 3.590333 -12.953071 0
M  V30 2 C 12.184073 8.091003 -3.816951 0
M  V30 3 C 8.285893 4.960946 -9.893766 0
M  V30 4 C 8.896435 6.286603 -7.147653 0
M  V30 5 C 8.820573 6.655043 -12.135110 0 CFG=2
M  V30 6 C 7.591609 5.746701 -12.263667 0 CFG=1
M  V30 7 S 11.333903 9.937140 -5.554133 0
M  V30 8 C 12.613232 9.424781 -4.388411 0
M  V30 9 C 11.434851 7.380561 -4.935998 0
M  V30 10 C 6.463620 2.612220 -13.353045 0
M  V30 11 N 9.034644 6.216046 -9.614346 0 CFG=1 CHG=1
M  V30 12 C 7.715552 4.688387 -13.392465 0 CFG=2
M  V30 13 C 7.154029 5.116498 -10.926309 0 CFG=2
M  V30 14 C 6.370521 4.057315 -13.817777 0
M  V30 15 C 7.956335 2.369127 -13.419143 0
M  V30 16 C 11.566914 7.941751 -7.421383 0
M  V30 17 C 9.851028 6.183363 -8.344996 0 CFG=1
M  V30 18 C 10.895968 8.256837 -6.074644 0 CFG=2
M  V30 19 C 10.204478 6.092233 -11.897534 0
M  V30 20 O 11.293130 6.169267 -4.931395 0
M  V30 21 O 6.009075 5.769381 -10.416327 0
M  V30 22 C 11.125779 7.072332 -8.382301 0
M  V30 23 C 9.563449 6.929726 -10.819982 0 CFG=1
M  V30 24 H 13.037681 7.504436 -3.479533 0
M  V30 25 H 11.514395 8.233671 -2.969550 0
M  V30 26 H 7.832444 4.567731 -8.989490 0
M  V30 27 H 8.974733 4.176499 -10.218649 0
M  V30 28 H 9.354134 6.079473 -6.195589 0
M  V30 29 H 8.418420 7.262840 -7.113961 0
M  V30 30 H 8.082392 5.566531 -7.192589 0
M  V30 31 H 8.795021 7.481046 -12.842022 0
M  V30 32 H 6.790042 6.413497 -12.588657 0
M  V30 33 H 13.568165 9.366080 -4.910850 0
M  V30 34 H 12.731410 10.165661 -3.600036 0
M  V30 35 H 5.892019 1.912953 -13.960023 0
M  V30 36 H 6.112279 2.492551 -12.329806 0
M  V30 37 H 8.189225 5.131467 -14.270411 0
M  V30 38 H 6.772624 4.115527 -11.098171 0
M  V30 39 H 5.494643 4.561647 -13.406543 0
M  V30 40 H 6.282777 4.082106 -14.907439 0
M  V30 41 H 8.248700 2.193678 -14.455574 0
M  V30 42 H 8.276134 1.520014 -12.813652 0
M  V30 43 H 12.486233 8.478103 -7.610155 0
M  V30 44 H 10.275646 5.180365 -8.294868 0
M  V30 45 H 9.815364 8.249323 -6.102996 0
M  V30 46 H 11.016611 6.540073 -12.466235 0
M  V30 47 H 10.265190 5.012716 -11.797763 0
M  V30 48 H 6.260486 6.645679 -10.090804 0
M  V30 49 H 11.723160 6.974091 -9.276797 0
M  V30 50 H 9.894861 7.951837 -10.639842 0
M  V30 51 H 8.278351 6.856879 -9.365234 0
M  V30 END ATOM
M  V30 BEGIN BOND
M  V30 1 1 6 5
M  V30 2 1 8 2
M  V30 3 1 8 7
M  V30 4 1 9 2
M  V30 5 1 11 3
M  V30 6 1 12 1
M  V30 7 1 12 6
M  V30 8 1 13 3
M  V30 9 1 13 6
M  V30 10 1 14 10
M  V30 11 1 14 12
M  V30 12 1 15 1
M  V30 13 1 15 10
M  V30 14 1 17 4
M  V30 15 1 17 11
M  V30 16 1 18 7
M  V30 17 1 18 9
M  V30 18 1 18 16
M  V30 19 1 19 5
M  V30 20 2 20 9
M  V30 21 1 21 13
M  V30 22 2 22 16
M  V30 23 1 22 17
M  V30 24 1 23 5
M  V30 25 1 23 11
M  V30 26 1 23 19
M  V30 27 1 24 2
M  V30 28 1 25 2
M  V30 29 1 26 3
M  V30 30 1 27 3
M  V30 31 1 28 4
M  V30 32 1 29 4
M  V30 33 1 30 4
M  V30 34 1 5 31 CFG=3
M  V30 35 1 6 32 CFG=3
M  V30 36 1 33 8
M  V30 37 1 34 8
M  V30 38 1 35 10
M  V30 39 1 36 10
M  V30 40 1 12 37 CFG=3
M  V30 41 1 13 38 CFG=3
M  V30 42 1 39 14
M  V30 43 1 40 14
M  V30 44 1 41 15
M  V30 45 1 42 15
M  V30 46 1 43 16
M  V30 47 1 17 44 CFG=1
M  V30 48 1 18 45 CFG=3
M  V30 49 1 46 19
M  V30 50 1 47 19
M  V30 51 1 48 21
M  V30 52 1 49 22
M  V30 53 1 23 50 CFG=1
M  V30 54 1 11 51 CFG=1
M  V30 END BOND
M  V30 END CTAB
M  END
>  <i_epik_Tot_Q>  (1) 
1

>  <i_epik_Tot_abs_Q>  (1) 
1

>  <i_i_glide_confnum>  (1) 
167

>  <i_i_glide_lignum>  (1) 
107

>  <i_i_glide_posenum>  (1) 
307

>  <i_i_glide_rotatable_bonds>  (1) 
5

>  <i_lp_mmshare_version>  (1) 
72125

>  <i_m_source_file_index>  (1) 
56

>  <i_f3d_flags>  (1) 
0

>  <num_sample>  (1) 
100

>  <b_lp_Chiralities_Consistent>  (1) 
1

>  <r_epik_Charging_Adjusted_Penalty>  (1) 
0.1887110856522376

>  <r_epik_Ionization_Penalty>  (1) 
0.094355642401006162

>  <r_epik_Ionization_Penalty_Charging>  (1) 
0.094355542826118813

>  <r_epik_Ionization_Penalty_Neutral>  (1) 
9.9574887353862298e-08

>  <r_epik_State_Penalty>  (1) 
0.094355542826118799

>  <r_glide_ring_energy>  (1) 
1.5489933511600571

>  <r_i_docking_score>  (1) 
-6.743380959799901

>  <r_i_glide_ecoul>  (1) 
-7.7543310907619354

>  <r_i_glide_eff_state_penalty>  (1) 
0.094355542826118799

>  <r_i_glide_einternal>  (1) 
11.817422235494364

>  <r_i_glide_emodel>  (1) 
-43.998866971372827

>  <r_i_glide_emodel_strain>  (1) 
1.6357584361724804

>  <r_i_glide_energy>  (1) 
-35.05339545252599

>  <r_i_glide_erotb>  (1) 
0.49519417565235591

>  <r_i_glide_esite>  (1) 
-0.098302640925717291

>  <r_i_glide_evdw>  (1) 
-27.299064361764056

>  <r_i_glide_gscore>  (1) 
-6.8377365026260195

>  <r_i_glide_gscore_strain>  (1) 
0

>  <r_i_glide_hbond>  (1) 
-0.34324942544227066

>  <r_i_glide_ligand_efficiency>  (1) 
-0.2931904765130392

>  <r_i_glide_ligand_efficiency_ln>  (1) 
-1.6306106616775475

>  <r_i_glide_ligand_efficiency_sa>  (1) 
-0.83379471496237811

>  <r_i_glide_lipo>  (1) 
-2.0818312489040531

>  <r_i_glide_metal>  (1) 
-0

>  <r_i_glide_rewards>  (1) 
-2.2814444813038408

>  <r_lp_Energy>  (1) 
19.031651

>  <r_lp_tautomer_probability>  (1) 
0.99995000000000001

>  <s_epik_cmdline>  (1) 
J2VwaWtfcHl0aG9uJywgJy1waHQnLCAnMS4wJywgJy1waCcsICc3LjQnLCAnLXRuJywgJzgnLCAnLW1hJywgJzUwMCcsICctaW1hZScsICc8aW5maWxlLm1hZT4nLCAnLW9tYWUnLCAnPG91dGZpbGUubWFlPic=

>  <s_epik_input>  (1) 
W0NIMl0xW0NIMl1bQ0gyXU9bQ0BASF0xW0NASF0yW0NASF0oW09IXSlbQ0gyXU4oW0NASF0oW0NASF0yMylbQ0gyXTMpW0NASF0oW0NIM10pL1tDSF09W0NIXVxbQ0BASF00U1tDSDJdW0NIMl1DND1P

>  <s_glide_docking_method>  (1) 
confgen

>  <s_i_glide_gridfile>  (1) 
gpcr_drd2_6luq_protein_autoprepared_prepared

>  <s_lp_Force_Field>  (1) 
S-OPLS

>  <s_lp_Variant>  (1) 
DiffSBDD_55_num_sample_100-8

>  <s_m_source_file>  (1) 
generated__ligand_DiffSBDD_2026-05-06_prepared.sdf

>  <GenAI_Model>  (1) 
DiffSBDD

>  <Protein>  (1) 
generic_title2

$$$$
DiffSBDD_55_num_sample_100
     RDKit          3D

  0  0  0  0  0  0  0  0  0  0999 V3000
M  V30 BEGIN CTAB
M  V30 COUNTS 51 54 0 0 1
M  V30 BEGIN ATOM
M  V30 1 O 6.646513 4.269472 -11.409610 0
M  V30 2 C 12.133006 7.382993 -3.310195 0
M  V30 3 C 9.268343 7.745032 -11.257340 0
M  V30 4 C 11.820551 8.414301 -9.627351 0
M  V30 5 C 9.282154 5.060199 -10.255742 0 CFG=2
M  V30 6 C 8.820277 5.340778 -11.682905 0 CFG=1
M  V30 7 S 12.037238 9.768360 -4.583986 0
M  V30 8 C 12.235065 8.885359 -3.015706 0
M  V30 9 C 11.434779 7.249965 -4.663871 0
M  V30 10 C 6.081011 3.829709 -13.585298 0
M  V30 11 N 9.435395 7.562305 -9.793299 0 CFG=2 CHG=1
M  V30 12 C 7.886406 4.208694 -12.108885 0 CFG=2
M  V30 13 C 8.235014 6.759652 -11.803788 0 CFG=2
M  V30 14 C 7.577195 4.046395 -13.599131 0
M  V30 15 C 5.619743 4.561493 -12.334934 0
M  V30 16 C 11.188599 8.474332 -6.808923 0
M  V30 17 C 10.343296 8.565282 -9.183239 0 CFG=1
M  V30 18 C 11.019438 8.527124 -5.328535 0 CFG=2
M  V30 19 C 8.486102 5.363488 -9.005273 0
M  V30 20 O 11.235259 6.169181 -5.183006 0
M  V30 21 O 7.897430 7.147407 -13.117827 0
M  V30 22 C 10.175296 8.595504 -7.679686 0
M  V30 23 C 9.726385 6.171534 -9.339923 0 CFG=1
M  V30 24 H 13.130570 6.964854 -3.394788 0
M  V30 25 H 11.601154 6.849319 -2.521129 0
M  V30 26 H 10.210959 7.616069 -11.786537 0
M  V30 27 H 8.929912 8.766486 -11.438584 0
M  V30 28 H 12.445644 9.195292 -9.195219 0
M  V30 29 H 12.254739 7.457791 -9.338133 0
M  V30 30 H 11.938575 8.506181 -10.697535 0
M  V30 31 H 9.832337 4.126448 -10.177158 0
M  V30 32 H 9.712408 5.281124 -12.307585 0
M  V30 33 H 13.191928 9.152484 -2.559245 0
M  V30 34 H 11.442771 9.192045 -2.333266 0
M  V30 35 H 5.861656 2.764178 -13.491795 0
M  V30 36 H 5.606318 4.215370 -14.484836 0
M  V30 37 H 8.384405 3.305099 -11.799946 0
M  V30 38 H 7.314600 6.825390 -11.229523 0
M  V30 39 H 7.829262 4.921910 -14.191588 0
M  V30 40 H 8.108776 3.199512 -14.037880 0
M  V30 41 H 4.650211 4.221659 -11.970764 0
M  V30 42 H 5.569756 5.637171 -12.503193 0
M  V30 43 H 12.197470 8.333457 -7.163839 0
M  V30 44 H 9.993073 9.544400 -9.491667 0
M  V30 45 H 9.976561 8.697429 -5.094520 0
M  V30 46 H 8.559577 4.673267 -8.165800 0
M  V30 47 H 7.491227 5.769166 -9.153218 0
M  V30 48 H 8.645097 7.021665 -13.678742 0
M  V30 49 H 9.165078 8.732122 -7.309240 0
M  V30 50 H 10.610139 6.025465 -8.726405 0
M  V30 51 H 8.477448 7.769443 -9.473679 0
M  V30 END ATOM
M  V30 BEGIN BOND
M  V30 1 1 6 5
M  V30 2 1 8 2
M  V30 3 1 8 7
M  V30 4 1 9 2
M  V30 5 1 11 3
M  V30 6 1 12 1
M  V30 7 1 12 6
M  V30 8 1 13 3
M  V30 9 1 13 6
M  V30 10 1 14 10
M  V30 11 1 14 12
M  V30 12 1 15 1
M  V30 13 1 15 10
M  V30 14 1 17 4
M  V30 15 1 17 11
M  V30 16 1 18 7
M  V30 17 1 18 9
M  V30 18 1 18 16
M  V30 19 1 19 5
M  V30 20 2 20 9
M  V30 21 1 21 13
M  V30 22 2 22 16
M  V30 23 1 22 17
M  V30 24 1 23 5
M  V30 25 1 23 11
M  V30 26 1 23 19
M  V30 27 1 24 2
M  V30 28 1 25 2
M  V30 29 1 26 3
M  V30 30 1 27 3
M  V30 31 1 28 4
M  V30 32 1 29 4
M  V30 33 1 30 4
M  V30 34 1 5 31 CFG=3
M  V30 35 1 6 32 CFG=3
M  V30 36 1 33 8
M  V30 37 1 34 8
M  V30 38 1 35 10
M  V30 39 1 36 10
M  V30 40 1 12 37 CFG=1
M  V30 41 1 13 38 CFG=1
M  V30 42 1 39 14
M  V30 43 1 40 14
M  V30 44 1 41 15
M  V30 45 1 42 15
M  V30 46 1 43 16
M  V30 47 1 17 44 CFG=3
M  V30 48 1 18 45 CFG=3
M  V30 49 1 46 19
M  V30 50 1 47 19
M  V30 51 1 48 21
M  V30 52 1 49 22
M  V30 53 1 23 50 CFG=1
M  V30 54 1 11 51 CFG=1
M  V30 END BOND
M  V30 END CTAB
M  END
>  <i_epik_Tot_Q>  (1) 
1

>  <i_epik_Tot_abs_Q>  (1) 
1

>  <i_i_glide_confnum>  (1) 
65

>  <i_i_glide_lignum>  (1) 
104

>  <i_i_glide_posenum>  (1) 
41

>  <i_i_glide_rotatable_bonds>  (1) 
5

>  <i_lp_mmshare_version>  (1) 
72125

>  <i_m_source_file_index>  (1) 
56

>  <i_f3d_flags>  (1) 
0

>  <num_sample>  (1) 
100

>  <b_lp_Chiralities_Consistent>  (1) 
1

>  <r_epik_Charging_Adjusted_Penalty>  (1) 
0.1887110856522376

>  <r_epik_Ionization_Penalty>  (1) 
0.094355642401006162

>  <r_epik_Ionization_Penalty_Charging>  (1) 
0.094355542826118813

>  <r_epik_Ionization_Penalty_Neutral>  (1) 
9.9574887353862298e-08

>  <r_epik_State_Penalty>  (1) 
0.094355542826118799

>  <r_glide_ring_energy>  (1) 
0.48034924446919847

>  <r_i_docking_score>  (1) 
-6.7170850885278774

>  <r_i_glide_ecoul>  (1) 
-5.9233451943007962

>  <r_i_glide_eff_state_penalty>  (1) 
0.094355542826118799

>  <r_i_glide_einternal>  (1) 
4.8974092193506182

>  <r_i_glide_emodel>  (1) 
-51.712053955484102

>  <r_i_glide_emodel_strain>  (1) 
0.15395485102918371

>  <r_i_glide_energy>  (1) 
-35.598160940439854

>  <r_i_glide_erotb>  (1) 
0.49519417565235591

>  <r_i_glide_esite>  (1) 
-0.10000000000000001

>  <r_i_glide_evdw>  (1) 
-29.674815746139057

>  <r_i_glide_gscore>  (1) 
-6.8114406313539959

>  <r_i_glide_gscore_strain>  (1) 
0

>  <r_i_glide_hbond>  (1) 
-0.20000000000000001

>  <r_i_glide_ligand_efficiency>  (1) 
-0.29204717776208161

>  <r_i_glide_ligand_efficiency_ln>  (1) 
-1.6242520815661943

>  <r_i_glide_ligand_efficiency_sa>  (1) 
-0.83054332539642439

>  <r_i_glide_lipo>  (1) 
-2.4275575748098959

>  <r_i_glide_metal>  (1) 
-0

>  <r_i_glide_rewards>  (1) 
-2.2068346657443825

>  <r_lp_Energy>  (1) 
21.402259999999998

>  <r_lp_tautomer_probability>  (1) 
0.99995000000000001

>  <s_epik_cmdline>  (1) 
J2VwaWtfcHl0aG9uJywgJy1waHQnLCAnMS4wJywgJy1waCcsICc3LjQnLCAnLXRuJywgJzgnLCAnLW1hJywgJzUwMCcsICctaW1hZScsICc8aW5maWxlLm1hZT4nLCAnLW9tYWUnLCAnPG91dGZpbGUubWFlPic=

>  <s_epik_input>  (1) 
W0NIMl0xW0NIMl1bQ0gyXU9bQ0BASF0xW0NASF0yW0NASF0oW09IXSlbQ0gyXU4oW0NASF0oW0NASF0yMylbQ0gyXTMpW0NASF0oW0NIM10pXFtDSF09W0NIXVxbQ0BASF00U1tDSDJdW0NIMl1DND1P

>  <s_glide_docking_method>  (1) 
confgen

>  <s_i_glide_gridfile>  (1) 
gpcr_drd2_6luq_protein_autoprepared_prepared

>  <s_lp_Force_Field>  (1) 
S-OPLS

>  <s_lp_Variant>  (1) 
DiffSBDD_55_num_sample_100-5

>  <s_m_source_file>  (1) 
generated__ligand_DiffSBDD_2026-05-06_prepared.sdf

>  <GenAI_Model>  (1) 
DiffSBDD

>  <Protein>  (1) 
generic_title2

$$$$
DiffSBDD_55_num_sample_100
     RDKit          3D

  0  0  0  0  0  0  0  0  0  0999 V3000
M  V30 BEGIN CTAB
M  V30 COUNTS 51 54 0 0 1
M  V30 BEGIN ATOM
M  V30 1 O 6.643813 4.310829 -11.623110 0
M  V30 2 C 12.184893 7.349839 -3.365198 0
M  V30 3 C 9.267454 7.759043 -11.278106 0
M  V30 4 C 11.790149 8.470783 -9.625025 0
M  V30 5 C 9.291696 5.032734 -10.406623 0 CFG=2
M  V30 6 C 8.818408 5.357640 -11.823435 0 CFG=1
M  V30 7 S 11.987164 9.769313 -4.542475 0
M  V30 8 C 12.234845 8.836487 -3.011525 0
M  V30 9 C 11.434935 7.240132 -4.691185 0
M  V30 10 C 6.032657 4.806136 -13.798682 0
M  V30 11 N 9.435020 7.530019 -9.825387 0 CFG=2 CHG=1
M  V30 12 C 7.866257 4.260734 -12.352678 0 CFG=2
M  V30 13 C 8.242375 6.788998 -11.866625 0 CFG=2
M  V30 14 C 7.484116 4.371366 -13.839392 0
M  V30 15 C 5.565830 4.126597 -12.524188 0
M  V30 16 C 11.168177 8.507603 -6.809232 0
M  V30 17 C 10.309912 8.551138 -9.185028 0 CFG=1
M  V30 18 C 10.997594 8.526772 -5.324683 0 CFG=2
M  V30 19 C 8.508595 5.315009 -9.143369 0
M  V30 20 O 11.212621 6.169313 -5.215976 0
M  V30 21 O 7.939964 7.263189 -13.152780 0
M  V30 22 C 10.145283 8.561351 -7.678221 0
M  V30 23 C 9.753756 6.125159 -9.447264 0 CFG=1
M  V30 24 H 13.196439 6.971875 -3.491210 0
M  V30 25 H 11.696869 6.761408 -2.589800 0
M  V30 26 H 10.215805 7.660731 -11.807379 0
M  V30 27 H 8.917070 8.782494 -11.425737 0
M  V30 28 H 12.359330 9.310206 -9.226427 0
M  V30 29 H 12.269762 7.544781 -9.309460 0
M  V30 30 H 11.907998 8.537975 -10.694880 0
M  V30 31 H 9.834770 4.092905 -10.368276 0
M  V30 32 H 9.712070 5.337613 -12.448728 0
M  V30 33 H 13.178164 9.113953 -2.538301 0
M  V30 34 H 11.433994 9.084794 -2.313409 0
M  V30 35 H 5.473619 4.520339 -14.686197 0
M  V30 36 H 5.929396 5.883610 -13.690727 0
M  V30 37 H 8.319274 3.280474 -12.191700 0
M  V30 38 H 7.304221 6.822074 -11.317055 0
M  V30 39 H 8.121633 5.044604 -14.412285 0
M  V30 40 H 7.557387 3.388991 -14.306493 0
M  V30 41 H 5.434983 3.057619 -12.691130 0
M  V30 42 H 4.637635 4.535687 -12.128886 0
M  V30 43 H 12.183789 8.448422 -7.168682 0
M  V30 44 H 9.920632 9.516546 -9.491719 0
M  V30 45 H 9.949828 8.663845 -5.091856 0
M  V30 46 H 8.575237 4.587276 -8.336995 0
M  V30 47 H 7.527358 5.769059 -9.251680 0
M  V30 48 H 7.091352 7.678887 -13.125481 0
M  V30 49 H 9.130676 8.619498 -7.304680 0
M  V30 50 H 10.624247 5.978229 -8.808897 0
M  V30 51 H 8.476553 7.698212 -9.493157 0
M  V30 END ATOM
M  V30 BEGIN BOND
M  V30 1 1 6 5
M  V30 2 1 8 2
M  V30 3 1 8 7
M  V30 4 1 9 2
M  V30 5 1 11 3
M  V30 6 1 12 1
M  V30 7 1 12 6
M  V30 8 1 13 3
M  V30 9 1 13 6
M  V30 10 1 14 10
M  V30 11 1 14 12
M  V30 12 1 15 1
M  V30 13 1 15 10
M  V30 14 1 17 4
M  V30 15 1 17 11
M  V30 16 1 18 7
M  V30 17 1 18 9
M  V30 18 1 18 16
M  V30 19 1 19 5
M  V30 20 2 20 9
M  V30 21 1 21 13
M  V30 22 2 22 16
M  V30 23 1 22 17
M  V30 24 1 23 5
M  V30 25 1 23 11
M  V30 26 1 23 19
M  V30 27 1 24 2
M  V30 28 1 25 2
M  V30 29 1 26 3
M  V30 30 1 27 3
M  V30 31 1 28 4
M  V30 32 1 29 4
M  V30 33 1 30 4
M  V30 34 1 5 31 CFG=3
M  V30 35 1 6 32 CFG=3
M  V30 36 1 33 8
M  V30 37 1 34 8
M  V30 38 1 35 10
M  V30 39 1 36 10
M  V30 40 1 12 37 CFG=3
M  V30 41 1 13 38 CFG=1
M  V30 42 1 39 14
M  V30 43 1 40 14
M  V30 44 1 41 15
M  V30 45 1 42 15
M  V30 46 1 43 16
M  V30 47 1 17 44 CFG=3
M  V30 48 1 18 45 CFG=3
M  V30 49 1 46 19
M  V30 50 1 47 19
M  V30 51 1 48 21
M  V30 52 1 49 22
M  V30 53 1 23 50 CFG=1
M  V30 54 1 11 51 CFG=1
M  V30 END BOND
M  V30 END CTAB
M  END
>  <i_epik_Tot_Q>  (1) 
1

>  <i_epik_Tot_abs_Q>  (1) 
1

>  <i_i_glide_confnum>  (1) 
281

>  <i_i_glide_lignum>  (1) 
104

>  <i_i_glide_posenum>  (1) 
352

>  <i_i_glide_rotatable_bonds>  (1) 
5

>  <i_lp_mmshare_version>  (1) 
72125

>  <i_m_source_file_index>  (1) 
56

>  <i_f3d_flags>  (1) 
0

>  <num_sample>  (1) 
100

>  <b_lp_Chiralities_Consistent>  (1) 
1

>  <r_epik_Charging_Adjusted_Penalty>  (1) 
0.1887110856522376

>  <r_epik_Ionization_Penalty>  (1) 
0.094355642401006162

>  <r_epik_Ionization_Penalty_Charging>  (1) 
0.094355542826118813

>  <r_epik_Ionization_Penalty_Neutral>  (1) 
9.9574887353862298e-08

>  <r_epik_State_Penalty>  (1) 
0.094355542826118799

>  <r_glide_ring_energy>  (1) 
0

>  <r_i_docking_score>  (1) 
-6.707650091178051

>  <r_i_glide_ecoul>  (1) 
-5.3006194191227198

>  <r_i_glide_eff_state_penalty>  (1) 
0.094355542826118799

>  <r_i_glide_einternal>  (1) 
5.8702936750187886

>  <r_i_glide_emodel>  (1) 
-50.132945518481201

>  <r_i_glide_emodel_strain>  (1) 
0.81954156503525866

>  <r_i_glide_energy>  (1) 
-35.197007036141649

>  <r_i_glide_erotb>  (1) 
0.49519417565235591

>  <r_i_glide_esite>  (1) 
-0.10000000000000001

>  <r_i_glide_evdw>  (1) 
-29.896387617018931

>  <r_i_glide_gscore>  (1) 
-6.8020056340041695

>  <r_i_glide_gscore_strain>  (1) 
0

>  <r_i_glide_hbond>  (1) 
-0.20000000000000001

>  <r_i_glide_ligand_efficiency>  (1) 
-0.29163696048600224

>  <r_i_glide_ligand_efficiency_ln>  (1) 
-1.6219706136551801

>  <r_i_glide_ligand_efficiency_sa>  (1) 
-0.82937672203041746

>  <r_i_glide_lipo>  (1) 
-2.437100742165379

>  <r_i_glide_metal>  (1) 
-0

>  <r_i_glide_rewards>  (1) 
-2.2701867737717931

>  <r_lp_Energy>  (1) 
21.402259999999998

>  <r_lp_tautomer_probability>  (1) 
0.99995000000000001

>  <s_epik_cmdline>  (1) 
J2VwaWtfcHl0aG9uJywgJy1waHQnLCAnMS4wJywgJy1waCcsICc3LjQnLCAnLXRuJywgJzgnLCAnLW1hJywgJzUwMCcsICctaW1hZScsICc8aW5maWxlLm1hZT4nLCAnLW9tYWUnLCAnPG91dGZpbGUubWFlPic=

>  <s_epik_input>  (1) 
W0NIMl0xW0NIMl1bQ0gyXU9bQ0BASF0xW0NASF0yW0NASF0oW09IXSlbQ0gyXU4oW0NASF0oW0NASF0yMylbQ0gyXTMpW0NASF0oW0NIM10pXFtDSF09W0NIXVxbQ0BASF00U1tDSDJdW0NIMl1DND1P

>  <s_glide_docking_method>  (1) 
confgen

>  <s_i_glide_gridfile>  (1) 
gpcr_drd2_6luq_protein_autoprepared_prepared

>  <s_lp_Force_Field>  (1) 
S-OPLS

>  <s_lp_Variant>  (1) 
DiffSBDD_55_num_sample_100-5

>  <s_m_source_file>  (1) 
generated__ligand_DiffSBDD_2026-05-06_prepared.sdf

>  <GenAI_Model>  (1) 
DiffSBDD

>  <Protein>  (1) 
generic_title2

$$$$
DiffSBDD_30_num_sample_100
     RDKit          3D

  0  0  0  0  0  0  0  0  0  0999 V3000
M  V30 BEGIN CTAB
M  V30 COUNTS 49 51 0 0 1
M  V30 BEGIN ATOM
M  V30 1 C 7.080401 5.996545 -15.398171 0
M  V30 2 C 4.301527 7.430750 -17.608296 0
M  V30 3 S 7.833151 6.515399 -12.169370 0
M  V30 4 C 8.679737 5.658654 -10.894979 0
M  V30 5 F 12.336408 9.813571 -6.040191 0
M  V30 6 C 7.252793 4.873119 -14.352898 0 CFG=1
M  V30 7 C 8.395944 5.281243 -13.398453 0 CFG=2
M  V30 8 C 5.042369 8.168825 -16.511037 0
M  V30 9 C 5.900609 4.564992 -13.657061 0
M  V30 10 C 5.974482 5.769381 -16.434457 0
M  V30 11 C 9.364425 5.631866 -8.513801 0
M  V30 12 C 10.167773 6.744256 -7.854098 0
M  V30 13 C 11.751299 8.599807 -8.015106 0
M  V30 14 N 8.634841 6.169286 -9.661225 0
M  V30 15 C 11.634354 8.818024 -6.630273 0
M  V30 16 F 11.133660 7.369114 -9.964802 0
M  V30 17 C 8.788572 2.699913 -12.834600 0
M  V30 18 C 5.702318 7.019358 -17.222694 0
M  V30 19 C 11.020666 7.568220 -8.629784 0
M  V30 20 N 9.308191 4.562256 -11.286034 0 CHG=1
M  V30 21 C 10.057649 6.963787 -6.467070 0
M  V30 22 C 10.790020 7.999740 -5.857258 0
M  V30 23 O 5.964570 3.965952 -12.383078 0
M  V30 24 C 9.233505 4.160109 -12.687136 0 CFG=2
M  V30 25 H 6.884034 6.934896 -14.874264 0
M  V30 26 H 8.020645 6.145618 -15.929525 0
M  V30 27 H 4.167776 7.941959 -18.558674 0
M  V30 28 H 3.477516 6.784015 -17.309419 0
M  V30 29 H 7.563428 3.989979 -14.910164 0
M  V30 30 H 9.146145 5.788373 -14.002535 0
M  V30 31 H 4.701511 8.015125 -15.490455 0
M  V30 32 H 5.510927 9.128532 -16.691783 0
M  V30 33 H 5.385237 3.858719 -14.291002 0
M  V30 34 H 5.279810 5.458786 -13.573778 0
M  V30 35 H 6.238392 4.968961 -17.122881 0
M  V30 36 H 5.047375 5.496638 -15.938863 0
M  V30 37 H 8.649399 5.214715 -7.805394 0
M  V30 38 H 10.039832 4.830751 -8.808090 0
M  V30 39 H 12.399437 9.227212 -8.608632 0
M  V30 40 H 8.033307 7.005581 -9.491984 0
M  V30 41 H 8.632019 2.410453 -13.871570 0
M  V30 42 H 9.575706 2.058795 -12.452303 0
M  V30 43 H 7.883015 2.461958 -12.291681 0
M  V30 44 H 6.491489 7.280414 -17.925054 0
M  V30 45 H 9.408134 6.340472 -5.870551 0
M  V30 46 H 10.703197 8.167729 -4.794805 0
M  V30 47 H 6.165375 4.635057 -11.745247 0
M  V30 48 H 10.234814 4.230494 -13.087386 0
M  V30 49 H 9.832408 3.996704 -10.635135 0
M  V30 END ATOM
M  V30 BEGIN BOND
M  V30 1 1 4 3
M  V30 2 1 6 1
M  V30 3 1 7 3
M  V30 4 1 7 6
M  V30 5 1 8 2
M  V30 6 1 9 6
M  V30 7 1 10 1
M  V30 8 1 12 11
M  V30 9 1 14 4
M  V30 10 1 14 11
M  V30 11 1 15 5
M  V30 12 2 15 13
M  V30 13 1 18 2
M  V30 14 1 18 8
M  V30 15 1 18 10
M  V30 16 2 19 12
M  V30 17 1 19 13
M  V30 18 1 19 16
M  V30 19 2 20 4
M  V30 20 1 21 12
M  V30 21 1 22 15
M  V30 22 2 22 21
M  V30 23 1 23 9
M  V30 24 1 24 7
M  V30 25 1 24 17
M  V30 26 1 24 20
M  V30 27 1 25 1
M  V30 28 1 26 1
M  V30 29 1 27 2
M  V30 30 1 28 2
M  V30 31 1 6 29 CFG=3
M  V30 32 1 7 30 CFG=3
M  V30 33 1 31 8
M  V30 34 1 32 8
M  V30 35 1 33 9
M  V30 36 1 34 9
M  V30 37 1 35 10
M  V30 38 1 36 10
M  V30 39 1 37 11
M  V30 40 1 38 11
M  V30 41 1 39 13
M  V30 42 1 40 14
M  V30 43 1 41 17
M  V30 44 1 42 17
M  V30 45 1 43 17
M  V30 46 1 44 18
M  V30 47 1 45 21
M  V30 48 1 46 22
M  V30 49 1 47 23
M  V30 50 1 24 48 CFG=3
M  V30 51 1 49 20
M  V30 END BOND
M  V30 END CTAB
M  END
>  <i_epik_Tot_Q>  (1) 
1

>  <i_epik_Tot_abs_Q>  (1) 
1

>  <i_i_glide_confnum>  (1) 
149

>  <i_i_glide_lignum>  (1) 
55

>  <i_i_glide_posenum>  (1) 
362

>  <i_i_glide_rotatable_bonds>  (1) 
9

>  <i_lp_mmshare_version>  (1) 
72125

>  <i_m_source_file_index>  (1) 
31

>  <i_f3d_flags>  (1) 
0

>  <num_sample>  (1) 
100

>  <b_lp_Chiralities_Consistent>  (1) 
1

>  <r_epik_Charging_Adjusted_Penalty>  (1) 
0.10703469102833196

>  <r_epik_Ionization_Penalty>  (1) 
0.069318960315332093

>  <r_epik_Ionization_Penalty_Charging>  (1) 
0.03959288354667883

>  <r_epik_Ionization_Penalty_Neutral>  (1) 
0.029726076768653267

>  <r_epik_State_Penalty>  (1) 
0.06744180748165314

>  <r_glide_ring_energy>  (1) 
0

>  <r_i_docking_score>  (1) 
-6.7013048839092404

>  <r_i_glide_ecoul>  (1) 
-10.186317077839201

>  <r_i_glide_eff_state_penalty>  (1) 
0.06744180748165314

>  <r_i_glide_einternal>  (1) 
3.3817175178183616

>  <r_i_glide_emodel>  (1) 
-49.728824455265254

>  <r_i_glide_emodel_strain>  (1) 
1.6874183469476236

>  <r_i_glide_energy>  (1) 
-35.489383212924906

>  <r_i_glide_erotb>  (1) 
1.0592382888714553

>  <r_i_glide_esite>  (1) 
-0.14807457995893489

>  <r_i_glide_evdw>  (1) 
-25.303066135085704

>  <r_i_glide_gscore>  (1) 
-6.7687466913908931

>  <r_i_glide_gscore_strain>  (1) 
0

>  <r_i_glide_hbond>  (1) 
-0.12773415094469603

>  <r_i_glide_ligand_efficiency>  (1) 
-0.27922103682955168

>  <r_i_glide_ligand_efficiency_ln>  (1) 
-1.6039297615634505

>  <r_i_glide_ligand_efficiency_sa>  (1) 
-0.80541284077641995

>  <r_i_glide_lipo>  (1) 
-2.3296901039443805

>  <r_i_glide_metal>  (1) 
-0

>  <r_i_glide_rewards>  (1) 
-2.4293852769841715

>  <r_lp_Energy>  (1) 
13.443218999999999

>  <s_epik_Chemistry_Notes>  (1) 
This compound has an imine and may undergo hydrolysis.

>  <s_epik_cmdline>  (1) 
J2VwaWtfcHl0aG9uJywgJy1waHQnLCAnMS4wJywgJy1waCcsICc3LjQnLCAnLXRuJywgJzgnLCAnLW1hJywgJzUwMCcsICctaW1hZScsICc8aW5maWxlLm1hZT4nLCAnLW9tYWUnLCAnPG91dGZpbGUubWFlPic=

>  <s_epik_input>  (1) 
W0NIMl0xW0NIMl1bQ0hdMVtDSDJdW0NIMl1bQ0BIXShbQ0gyXVtPSF0pW0NAQEhdKFMyKVtDQEhdKFtDSDNdKU49QzJbTkhdW0NIMl1jM2MoRilbY0hdYyhGKVtjSF1bY0hdMw==

>  <s_glide_docking_method>  (1) 
confgen

>  <s_i_glide_gridfile>  (1) 
gpcr_drd2_6luq_protein_autoprepared_prepared

>  <s_lp_Force_Field>  (1) 
S-OPLS

>  <s_lp_Variant>  (1) 
DiffSBDD_30_num_sample_100-1

>  <s_m_source_file>  (1) 
generated__ligand_DiffSBDD_2026-05-06_prepared.sdf

>  <GenAI_Model>  (1) 
DiffSBDD

>  <Protein>  (1) 
generic_title2

$$$$
DiffSBDD_16_num_sample_100
     RDKit          3D

  0  0  0  0  0  0  0  0  0  0999 V3000
M  V30 BEGIN CTAB
M  V30 COUNTS 54 57 0 0 1
M  V30 BEGIN ATOM
M  V30 1 C 10.446659 6.053874 -7.510457 0
M  V30 2 C 11.079444 7.369323 -10.581568 0
M  V30 3 C 6.299828 1.244482 -12.939577 0
M  V30 4 C 6.414951 2.619588 -13.226374 0
M  V30 5 C 7.508111 6.292267 -12.907454 0
M  V30 6 C 9.944632 8.784054 -6.879318 0 CFG=1
M  V30 7 C 9.891603 6.663887 -9.929054 0 CFG=1
M  V30 8 C 6.804494 0.291590 -13.842750 0
M  V30 9 C 7.542973 2.084741 -15.323951 0
M  V30 10 C 7.034840 3.041387 -14.420743 0
M  V30 11 C 8.031740 8.569185 -11.968849 0
M  V30 12 C 7.429244 0.711299 -15.035119 0
M  V30 13 C 11.200170 8.041400 -6.412155 0 CFG=1
M  V30 14 C 7.153585 4.523132 -14.735692 0
M  V30 15 C 8.166693 5.251211 -13.832091 0
M  V30 16 N 7.933902 -0.230636 -15.926870 0
M  V30 17 C 9.385411 5.342926 -10.463058 0
M  V30 18 C 8.514575 7.114782 -12.068141 0 CFG=1
M  V30 19 C 10.910796 9.401300 -5.887878 0
M  V30 20 O 10.111969 8.408654 -8.243371 0
M  V30 21 C 9.692208 7.040200 -8.457586 0 CFG=2
M  V30 22 C 10.737071 6.644437 -6.116959 0
M  V30 23 N 8.635990 6.569346 -10.691673 0 CFG=2 CHG=1
M  V30 24 H 9.894288 5.117852 -7.445510 0
M  V30 25 H 11.413798 5.813609 -7.943862 0
M  V30 26 H 11.957585 7.281829 -9.941506 0
M  V30 27 H 11.340519 6.940773 -11.547992 0
M  V30 28 H 10.870642 8.432866 -10.695300 0
M  V30 29 H 5.825664 0.920337 -12.025553 0
M  V30 30 H 6.026439 3.349749 -12.532906 0
M  V30 31 H 6.942806 6.969538 -13.550403 0
M  V30 32 H 6.764463 5.822053 -12.261289 0
M  V30 33 H 8.957803 8.525668 -6.493702 0
M  V30 34 H 6.712023 -0.762174 -13.620055 0
M  V30 35 H 8.020219 2.405411 -16.238386 0
M  V30 36 H 8.058267 9.053674 -12.942719 0
M  V30 37 H 7.006153 8.619936 -11.600434 0
M  V30 38 H 8.634882 9.161655 -11.283875 0
M  V30 39 H 12.087780 8.050904 -7.047750 0
M  V30 40 H 7.455038 4.642333 -15.777312 0
M  V30 41 H 6.163152 4.975606 -14.667500 0
M  V30 42 H 8.745997 4.526355 -13.262290 0
M  V30 43 H 8.890333 5.763007 -14.468277 0
M  V30 44 H 7.839147 -1.228483 -15.753865 0
M  V30 45 H 8.352814 0.043425 -16.803515 0
M  V30 46 H 8.809150 4.671949 -9.828957 0
M  V30 47 H 9.830242 4.937503 -11.369410 0
M  V30 48 H 9.468981 7.110336 -12.590072 0
M  V30 49 H 11.530865 10.221876 -6.244599 0
M  V30 50 H 10.633696 9.464259 -4.838840 0
M  V30 51 H 8.634538 6.969163 -8.213489 0
M  V30 52 H 11.518941 6.086364 -5.602037 0
M  V30 53 H 9.849717 6.647057 -5.479899 0
M  V30 54 H 7.860465 6.812759 -10.063906 0
M  V30 END ATOM
M  V30 BEGIN BOND
M  V30 1 1 4 3
M  V30 2 1 7 2 CFG=3
M  V30 3 2 8 3
M  V30 4 2 10 4
M  V30 5 1 10 9
M  V30 6 1 12 8
M  V30 7 2 12 9
M  V30 8 1 13 6
M  V30 9 1 14 10
M  V30 10 1 15 5
M  V30 11 1 15 14
M  V30 12 1 16 12
M  V30 13 1 17 7
M  V30 14 1 18 5
M  V30 15 1 18 11
M  V30 16 1 19 6
M  V30 17 1 19 13
M  V30 18 1 20 6
M  V30 19 1 21 1
M  V30 20 1 21 7
M  V30 21 1 21 20
M  V30 22 1 22 1
M  V30 23 1 22 13
M  V30 24 1 23 7
M  V30 25 1 23 17
M  V30 26 1 23 18
M  V30 27 1 24 1
M  V30 28 1 25 1
M  V30 29 1 26 2
M  V30 30 1 27 2
M  V30 31 1 28 2
M  V30 32 1 29 3
M  V30 33 1 30 4
M  V30 34 1 31 5
M  V30 35 1 32 5
M  V30 36 1 6 33 CFG=1
M  V30 37 1 34 8
M  V30 38 1 35 9
M  V30 39 1 36 11
M  V30 40 1 37 11
M  V30 41 1 38 11
M  V30 42 1 13 39 CFG=3
M  V30 43 1 40 14
M  V30 44 1 41 14
M  V30 45 1 42 15
M  V30 46 1 43 15
M  V30 47 1 44 16
M  V30 48 1 45 16
M  V30 49 1 46 17
M  V30 50 1 47 17
M  V30 51 1 18 48 CFG=3
M  V30 52 1 49 19
M  V30 53 1 50 19
M  V30 54 1 21 51 CFG=1
M  V30 55 1 52 22
M  V30 56 1 53 22
M  V30 57 1 23 54 CFG=1
M  V30 END BOND
M  V30 END CTAB
M  END
>  <i_epik_Tot_Q>  (1) 
1

>  <i_epik_Tot_abs_Q>  (1) 
1

>  <i_i_glide_confnum>  (1) 
84

>  <i_i_glide_lignum>  (1) 
27

>  <i_i_glide_posenum>  (1) 
335

>  <i_i_glide_rotatable_bonds>  (1) 
6

>  <i_lp_mmshare_version>  (1) 
72125

>  <i_m_source_file_index>  (1) 
17

>  <i_f3d_flags>  (1) 
0

>  <num_sample>  (1) 
100

>  <b_lp_Chiralities_Consistent>  (1) 
1

>  <r_epik_Charging_Adjusted_Penalty>  (1) 
0.11272327168216571

>  <r_epik_Ionization_Penalty>  (1) 
0.057493963086777844

>  <r_epik_Ionization_Penalty_Charging>  (1) 
0.056361635841082856

>  <r_epik_Ionization_Penalty_Neutral>  (1) 
0.0011323272456949893

>  <r_epik_State_Penalty>  (1) 
0.056361635841082856

>  <r_glide_ring_energy>  (1) 
0

>  <r_i_docking_score>  (1) 
-6.6975052012139633

>  <r_i_glide_ecoul>  (1) 
-9.2089520645746141

>  <r_i_glide_eff_state_penalty>  (1) 
0.056361635841082856

>  <r_i_glide_einternal>  (1) 
9.7948044834771562

>  <r_i_glide_emodel>  (1) 
-53.480525104646865

>  <r_i_glide_emodel_strain>  (1) 
0.27550744036402364

>  <r_i_glide_energy>  (1) 
-39.362600164732207

>  <r_i_glide_erotb>  (1) 
1.1214719841998091

>  <r_i_glide_esite>  (1) 
-0.11403836813342663

>  <r_i_glide_evdw>  (1) 
-30.153648100157593

>  <r_i_glide_gscore>  (1) 
-6.7538668370550461

>  <r_i_glide_gscore_strain>  (1) 
0

>  <r_i_glide_hbond>  (1) 
-0.52000000000000002

>  <r_i_glide_ligand_efficiency>  (1) 
-0.29119587831365057

>  <r_i_glide_ligand_efficiency_ln>  (1) 
-1.6195174872730875

>  <r_i_glide_ligand_efficiency_sa>  (1) 
-0.82812234300506549

>  <r_i_glide_lipo>  (1) 
-2.1942038975182649

>  <r_i_glide_metal>  (1) 
-0

>  <r_i_glide_rewards>  (1) 
-2.1580713409090908

>  <r_lp_Energy>  (1) 
55.325258999999996

>  <s_epik_cmdline>  (1) 
J2VwaWtfcHl0aG9uJywgJy1waHQnLCAnMS4wJywgJy1waCcsICc3LjQnLCAnLXRuJywgJzgnLCAnLW1hJywgJzUwMCcsICctaW1hZScsICc8aW5maWxlLm1hZT4nLCAnLW9tYWUnLCAnPG91dGZpbGUubWFlPic=

>  <s_epik_input>  (1) 
W0NIXTEyW0NIXShbQ0gyXTEpW0NIMl1bQ0gyXVtDQEBIXShPMilbQ0BAXTMoW0NIM10pW0NIMl1OM1tDQEhdKFtDSDNdKVtDSDJdW0NIMl1bQ0gyXWM0W2NIXVtjSF1bY0hdYyhbY0hdNClbTkgyXQ==

>  <s_glide_docking_method>  (1) 
confgen

>  <s_i_glide_gridfile>  (1) 
gpcr_drd2_6luq_protein_autoprepared_prepared

>  <s_lp_Force_Field>  (1) 
S-OPLS

>  <s_lp_Variant>  (1) 
DiffSBDD_16_num_sample_100-2

>  <s_m_source_file>  (1) 
generated__ligand_DiffSBDD_2026-05-06_prepared.sdf

>  <GenAI_Model>  (1) 
DiffSBDD

>  <Protein>  (1) 
generic_title2

$$$$
DiffSBDD_76_num_sample_100
     RDKit          3D

  0  0  0  0  0  0  0  0  0  0999 V3000
M  V30 BEGIN CTAB
M  V30 COUNTS 77 80 0 0 1
M  V30 BEGIN ATOM
M  V30 1 C 7.038796 6.744457 -14.467699 0
M  V30 2 C 5.583938 5.523896 -19.274239 0
M  V30 3 C 7.066170 4.379288 -12.262722 0
M  V30 4 N 7.068565 5.273575 -14.614737 0 CFG=2 CHG=1
M  V30 5 C 5.399169 4.885290 -20.536485 0
M  V30 6 C 11.703079 9.178822 -4.574650 0
M  V30 7 C 12.069740 9.848202 -5.666864 0
M  V30 8 C 10.551118 7.705350 -8.124727 0 CFG=1
M  V30 9 C 5.916430 6.709294 -16.771137 0
M  V30 10 N 9.262983 6.514488 -9.949964 0
M  V30 11 C 9.490248 7.572641 -10.943508 0
M  V30 12 C 6.624308 5.521293 -17.046549 0
M  V30 13 C 12.277673 9.189954 -7.015641 0
M  V30 14 C 7.146516 3.714538 -18.643795 0
M  V30 15 C 5.094766 7.247863 -17.768019 0
M  V30 16 C 10.225603 5.097019 -8.116150 0
M  V30 17 C 6.020034 7.387140 -15.412248 0
M  V30 18 C 8.776385 5.286103 -10.599864 0
M  V30 19 N 4.932461 6.683282 -18.976715 0
M  V30 20 O 10.636784 7.216667 -11.682063 0
M  V30 21 O 5.169785 3.367552 -23.085450 0
M  V30 22 C 11.736243 7.726491 -7.130132 0 CFG=1
M  V30 23 C 6.089376 3.665293 -20.843318 0
M  V30 24 C 7.339371 5.404895 -11.146842 0
M  V30 25 N 8.634751 7.260449 -6.692441 0 CHG=1
M  V30 26 C 10.346633 6.395219 -8.953025 0 CFG=2
M  V30 27 O 4.544877 5.451877 -21.453132 0 CHG=-1
M  V30 28 C 7.863439 4.591308 -13.565681 0
M  V30 29 C 6.464241 4.913035 -18.324889 0
M  V30 30 C 7.514189 4.896460 -15.976650 0
M  V30 31 C 9.293156 8.292713 -7.486096 0
M  V30 32 C 11.434515 7.766790 -4.616557 0
M  V30 33 C 11.434216 7.085431 -5.767931 0
M  V30 34 C 5.900814 2.962592 -22.182416 0
M  V30 35 C 6.961233 3.100518 -19.887619 0
M  V30 36 C 6.688874 1.664207 -22.376618 0
M  V30 37 H 6.803410 7.042156 -13.450516 0
M  V30 38 H 8.029471 7.122015 -14.686744 0
M  V30 39 H 7.321249 3.388064 -11.891520 0
M  V30 40 H 5.996715 4.342904 -12.478786 0
M  V30 41 H 11.594686 9.711015 -3.638867 0
M  V30 42 H 12.242975 10.910336 -5.613165 0
M  V30 43 H 10.851676 8.424975 -8.880202 0
M  V30 44 H 9.596831 8.557608 -10.495682 0
M  V30 45 H 8.657735 7.674386 -11.631491 0
M  V30 46 H 13.349803 9.193479 -7.217863 0
M  V30 47 H 11.834812 9.853157 -7.752496 0
M  V30 48 H 7.812850 3.257564 -17.933572 0
M  V30 49 H 4.543067 8.156654 -17.585074 0
M  V30 50 H 11.099023 4.977346 -7.494529 0
M  V30 51 H 9.330722 5.032825 -7.497640 0
M  V30 52 H 10.235142 4.182446 -8.704889 0
M  V30 53 H 6.275758 8.438881 -15.550980 0
M  V30 54 H 5.034838 7.372490 -14.944720 0
M  V30 55 H 9.483894 4.985642 -11.370390 0
M  V30 56 H 8.699063 4.446911 -9.918361 0
M  V30 57 H 10.449008 7.308730 -12.601715 0
M  V30 58 H 12.547927 7.130546 -7.542168 0
M  V30 59 H 6.642389 5.227797 -10.325507 0
M  V30 60 H 7.081633 6.406204 -11.470767 0
M  V30 61 H 7.622358 7.430601 -6.691681 0
M  V30 62 H 8.737508 6.406830 -7.217845 0
M  V30 63 H 11.275933 6.334448 -9.489435 0
M  V30 64 H 8.815002 5.105036 -13.414634 0
M  V30 65 H 8.126625 3.596054 -13.926703 0
M  V30 66 H 8.551042 5.193218 -16.138484 0
M  V30 67 H 7.452466 3.809563 -16.013783 0
M  V30 68 H 9.517054 9.141051 -6.842886 0
M  V30 69 H 8.634975 8.668690 -8.261852 0
M  V30 70 H 11.224920 7.244845 -3.695709 0
M  V30 71 H 11.230051 6.029220 -5.754395 0
M  V30 72 H 7.488504 2.185746 -20.104048 0
M  V30 73 H 6.380676 0.918719 -21.645367 0
M  V30 74 H 6.503059 1.259080 -23.368708 0
M  V30 75 H 7.759985 1.842576 -22.278914 0
M  V30 76 H 9.016300 7.162343 -5.762925 0
M  V30 77 H 6.118795 4.939381 -14.527185 0
M  V30 END ATOM
M  V30 BEGIN BOND
M  V30 1 1 4 1
M  V30 2 2 5 2
M  V30 3 2 7 6
M  V30 4 1 11 10
M  V30 5 2 12 9
M  V30 6 1 13 7
M  V30 7 1 15 9
M  V30 8 1 17 1
M  V30 9 1 17 9
M  V30 10 1 18 10
M  V30 11 1 19 2
M  V30 12 2 19 15
M  V30 13 1 20 11
M  V30 14 1 22 8
M  V30 15 1 22 13
M  V30 16 1 23 5
M  V30 17 1 24 3
M  V30 18 1 24 18
M  V30 19 1 26 8
M  V30 20 1 26 10
M  V30 21 1 26 16
M  V30 22 1 27 5
M  V30 23 1 28 3
M  V30 24 1 28 4
M  V30 25 1 29 2
M  V30 26 1 29 12
M  V30 27 2 29 14
M  V30 28 1 30 4
M  V30 29 1 30 12
M  V30 30 1 31 8
M  V30 31 1 31 25
M  V30 32 1 32 6
M  V30 33 1 33 22
M  V30 34 2 33 32
M  V30 35 2 34 21
M  V30 36 1 34 23
M  V30 37 1 35 14
M  V30 38 2 35 23
M  V30 39 1 36 34
M  V30 40 1 37 1
M  V30 41 1 38 1
M  V30 42 1 39 3
M  V30 43 1 40 3
M  V30 44 1 41 6
M  V30 45 1 42 7
M  V30 46 1 8 43 CFG=3
M  V30 47 1 44 11
M  V30 48 1 45 11
M  V30 49 1 46 13
M  V30 50 1 47 13
M  V30 51 1 48 14
M  V30 52 1 49 15
M  V30 53 1 50 16
M  V30 54 1 51 16
M  V30 55 1 52 16
M  V30 56 1 53 17
M  V30 57 1 54 17
M  V30 58 1 55 18
M  V30 59 1 56 18
M  V30 60 1 57 20
M  V30 61 1 22 58 CFG=3
M  V30 62 1 59 24
M  V30 63 1 60 24
M  V30 64 1 61 25
M  V30 65 1 62 25
M  V30 66 1 26 63 CFG=3
M  V30 67 1 64 28
M  V30 68 1 65 28
M  V30 69 1 66 30
M  V30 70 1 67 30
M  V30 71 1 68 31
M  V30 72 1 69 31
M  V30 73 1 70 32
M  V30 74 1 71 33
M  V30 75 1 72 35
M  V30 76 1 73 36
M  V30 77 1 74 36
M  V30 78 1 75 36
M  V30 79 1 76 25
M  V30 80 1 4 77 CFG=3
M  V30 END BOND
M  V30 END CTAB
M  END
>  <i_epik_Tot_Q>  (1) 
1

>  <i_epik_Tot_abs_Q>  (1) 
3

>  <i_i_glide_confnum>  (1) 
1086

>  <i_i_glide_lignum>  (1) 
153

>  <i_i_glide_posenum>  (1) 
93

>  <i_i_glide_rotatable_bonds>  (1) 
12

>  <i_lp_mmshare_version>  (1) 
72125

>  <i_m_source_file_index>  (1) 
77

>  <i_f3d_flags>  (1) 
0

>  <num_sample>  (1) 
100

>  <b_lp_Chiralities_Consistent>  (1) 
1

>  <r_epik_Charging_Adjusted_Penalty>  (1) 
0.19513752508682314

>  <r_epik_Ionization_Penalty>  (1) 
0.12765993639139714

>  <r_epik_Ionization_Penalty_Charging>  (1) 
0.058121654325050918

>  <r_epik_Ionization_Penalty_Neutral>  (1) 
0.069538282066346213

>  <r_epik_State_Penalty>  (1) 
0.13701587076177221

>  <r_glide_ring_energy>  (1) 
0.68305203791256774

>  <r_i_docking_score>  (1) 
-6.6809857112094146

>  <r_i_glide_ecoul>  (1) 
-9.5044267181069415

>  <r_i_glide_eff_state_penalty>  (1) 
0.13701587076177221

>  <r_i_glide_einternal>  (1) 
22.407417031867311

>  <r_i_glide_emodel>  (1) 
-44.079537451322345

>  <r_i_glide_emodel_strain>  (1) 
1.235457891473601

>  <r_i_glide_energy>  (1) 
-38.546169573812193

>  <r_i_glide_erotb>  (1) 
0.66875336800380736

>  <r_i_glide_esite>  (1) 
-0.18241667752568153

>  <r_i_glide_evdw>  (1) 
-29.041742855705252

>  <r_i_glide_gscore>  (1) 
-6.8180015819711866

>  <r_i_glide_gscore_strain>  (1) 
0

>  <r_i_glide_hbond>  (1) 
-0.20000000000000001

>  <r_i_glide_ligand_efficiency>  (1) 
-0.18558293642248375

>  <r_i_glide_ligand_efficiency_ln>  (1) 
-1.4576105828112504

>  <r_i_glide_ligand_efficiency_sa>  (1) 
-0.61278135470327832

>  <r_i_glide_lipo>  (1) 
-3.2503931580516054

>  <r_i_glide_metal>  (1) 
-0

>  <r_i_glide_rewards>  (1) 
-0.97619396389640312

>  <r_lp_Energy>  (1) 
66.867964000000001

>  <r_lp_tautomer_probability>  (1) 
0.99995000000000001

>  <s_epik_Chemistry_Notes>  (1) 
This compound contains an acetal/aminal-like group ( X-CH(R)-Y where X, Y are N, S, or O) that may be acid/base labile, releasing an aldehyde.

>  <s_epik_cmdline>  (1) 
J2VwaWtfcHl0aG9uJywgJy1waHQnLCAnMS4wJywgJy1waCcsICc3LjQnLCAnLXRuJywgJzgnLCAnLW1hJywgJzUwMCcsICctaW1hZScsICc8aW5maWxlLm1hZT4nLCAnLW9tYWUnLCAnPG91dGZpbGUubWFlPic=

>  <s_epik_input>  (1) 
Tz1DKFtDSDNdKWMoYzFbT0hdKVtjSF1bY0hdYyhjMTIpYzNjKFtjSF1uMilbQ0gyXVtDSDJdTihbQ0gyXTMpW0NIMl1bQ0gyXVtDSDJdW0NIMl1OKFtDSDJdW09IXSlbQ0BIXShbQ0gzXSlbQ0BASF0oW0NIMl1bTkgyXSlbQ0BIXTRbQ0gyXVtDSF09W0NIXVtDSF09W0NIXTQ=

>  <s_glide_docking_method>  (1) 
confgen

>  <s_i_glide_gridfile>  (1) 
gpcr_drd2_6luq_protein_autoprepared_prepared

>  <s_lp_Force_Field>  (1) 
S-OPLS

>  <s_lp_Variant>  (1) 
DiffSBDD_76_num_sample_100-2

>  <s_m_source_file>  (1) 
generated__ligand_DiffSBDD_2026-05-06_prepared.sdf

>  <GenAI_Model>  (1) 
DiffSBDD

>  <Protein>  (1) 
generic_title2

$$$$
DiffSBDD_83_num_sample_100
     RDKit          3D

  0  0  0  0  0  0  0  0  0  0999 V3000
M  V30 BEGIN CTAB
M  V30 COUNTS 49 53 0 0 1
M  V30 BEGIN ATOM
M  V30 1 C 10.256146 7.217342 -9.691568 0
M  V30 2 C 5.527022 8.242651 -15.913371 0
M  V30 3 C 6.910631 6.228272 -15.793508 0 CFG=1
M  V30 4 C 6.044570 5.274791 -12.137683 0
M  V30 5 C 6.117490 6.096380 -14.505789 0 CFG=2
M  V30 6 N 7.434836 5.369302 -9.791422 0 CHG=1
M  V30 7 C 6.271561 6.273403 -17.163716 0
M  V30 8 C 11.081569 8.206366 -7.611440 0
M  V30 9 C 6.480783 7.456906 -15.044688 0 CFG=2
M  V30 10 C 6.708907 5.561829 -13.248304 0
M  V30 11 C 11.861864 9.299732 -6.891947 0
M  V30 12 C 8.901358 5.048053 -9.670734 0 CFG=1
M  V30 13 C 9.763786 6.156992 -7.549424 0
M  V30 14 C 8.030486 5.298689 -13.016966 0
M  V30 15 C 10.968330 8.232046 -9.019547 0
M  V30 16 C 5.139731 7.308761 -17.071367 0
M  V30 17 C 9.434833 4.587414 -11.075810 0
M  V30 18 C 10.473904 7.167680 -6.879910 0
M  V30 19 C 8.172103 4.831907 -11.788617 0
M  V30 20 C 11.323085 9.737751 -5.516193 0
M  V30 21 O 11.834829 8.935849 -4.470240 0
M  V30 22 C 6.894387 4.662593 -10.961873 0 CFG=2
M  V30 23 C 9.659412 6.169330 -8.956262 0
M  V30 24 H 10.173841 7.242656 -10.767583 0
M  V30 25 H 4.657413 8.569300 -15.342917 0
M  V30 26 H 6.041740 9.125216 -16.291664 0
M  V30 27 H 7.960971 5.946718 -15.772883 0
M  V30 28 H 4.983989 5.398077 -12.032291 0
M  V30 29 H 5.080002 5.786036 -14.615246 0
M  V30 30 H 6.932855 5.099884 -8.957466 0
M  V30 31 H 5.915695 5.291428 -17.471176 0
M  V30 32 H 7.020693 6.601563 -17.885179 0
M  V30 33 H 7.239858 8.027739 -14.513228 0
M  V30 34 H 11.834837 10.169295 -7.538954 0
M  V30 35 H 12.911115 9.012116 -6.827708 0
M  V30 36 H 8.975366 4.175371 -9.019262 0
M  V30 37 H 9.301254 5.369294 -6.983145 0
M  V30 38 H 8.839561 5.512653 -13.699907 0
M  V30 39 H 11.430091 9.029035 -9.583916 0
M  V30 40 H 4.204287 6.801281 -16.830783 0
M  V30 41 H 4.988610 7.845320 -18.008768 0
M  V30 42 H 10.234839 5.177491 -11.509878 0
M  V30 43 H 9.675361 3.525792 -11.101045 0
M  V30 44 H 10.552901 7.142695 -5.803512 0
M  V30 45 H 10.234838 9.735980 -5.498913 0
M  V30 46 H 11.636436 10.762198 -5.315890 0
M  V30 47 H 12.775424 9.024147 -4.447162 0
M  V30 48 H 6.634490 3.629998 -10.767804 0
M  V30 49 H 7.321657 6.384634 -9.891666 0
M  V30 END ATOM
M  V30 BEGIN BOND
M  V30 1 1 5 3
M  V30 2 1 7 3
M  V30 3 1 9 2
M  V30 4 1 9 3
M  V30 5 1 9 5
M  V30 6 2 10 4
M  V30 7 1 10 5
M  V30 8 1 11 8
M  V30 9 1 12 6
M  V30 10 1 14 10
M  V30 11 2 15 1
M  V30 12 1 15 8
M  V30 13 1 16 2
M  V30 14 1 16 7
M  V30 15 1 17 12
M  V30 16 2 18 8
M  V30 17 1 18 13
M  V30 18 2 19 14
M  V30 19 1 19 17
M  V30 20 1 20 11
M  V30 21 1 21 20
M  V30 22 1 22 4
M  V30 23 1 22 6
M  V30 24 1 22 19
M  V30 25 1 23 1
M  V30 26 1 23 12
M  V30 27 2 23 13
M  V30 28 1 24 1
M  V30 29 1 25 2
M  V30 30 1 26 2
M  V30 31 1 3 27 CFG=3
M  V30 32 1 28 4
M  V30 33 1 5 29 CFG=3
M  V30 34 1 30 6
M  V30 35 1 31 7
M  V30 36 1 32 7
M  V30 37 1 9 33 CFG=1
M  V30 38 1 34 11
M  V30 39 1 35 11
M  V30 40 1 12 36 CFG=1
M  V30 41 1 37 13
M  V30 42 1 38 14
M  V30 43 1 39 15
M  V30 44 1 40 16
M  V30 45 1 41 16
M  V30 46 1 42 17
M  V30 47 1 43 17
M  V30 48 1 44 18
M  V30 49 1 45 20
M  V30 50 1 46 20
M  V30 51 1 47 21
M  V30 52 1 22 48 CFG=1
M  V30 53 1 49 6
M  V30 END BOND
M  V30 END CTAB
M  END
>  <i_epik_Tot_Q>  (1) 
1

>  <i_epik_Tot_abs_Q>  (1) 
1

>  <i_i_glide_confnum>  (1) 
198

>  <i_i_glide_lignum>  (1) 
169

>  <i_i_glide_posenum>  (1) 
256

>  <i_i_glide_rotatable_bonds>  (1) 
5

>  <i_lp_mmshare_version>  (1) 
72125

>  <i_m_source_file_index>  (1) 
84

>  <i_f3d_flags>  (1) 
0

>  <num_sample>  (1) 
100

>  <b_lp_Chiralities_Consistent>  (1) 
1

>  <r_epik_Charging_Adjusted_Penalty>  (1) 
0.3591125196210796

>  <r_epik_Ionization_Penalty>  (1) 
0.17955633890062345

>  <r_epik_Ionization_Penalty_Charging>  (1) 
0.1795562598105398

>  <r_epik_Ionization_Penalty_Neutral>  (1) 
7.9090083639956194e-08

>  <r_epik_State_Penalty>  (1) 
0.1795562598105398

>  <r_glide_ring_energy>  (1) 
0

>  <r_i_docking_score>  (1) 
-6.6710946062399969

>  <r_i_glide_ecoul>  (1) 
-5.8200061281052129

>  <r_i_glide_eff_state_penalty>  (1) 
0.1795562598105398

>  <r_i_glide_einternal>  (1) 
2.3970905449101254

>  <r_i_glide_emodel>  (1) 
-54.124896900376612

>  <r_i_glide_emodel_strain>  (1) 
1.2637956907208547

>  <r_i_glide_energy>  (1) 
-38.54588165373179

>  <r_i_glide_erotb>  (1) 
0.77787292059137758

>  <r_i_glide_esite>  (1) 
-0.10000000000000001

>  <r_i_glide_evdw>  (1) 
-32.725875525626577

>  <r_i_glide_gscore>  (1) 
-6.850650866050537

>  <r_i_glide_gscore_strain>  (1) 
0

>  <r_i_glide_hbond>  (1) 
-0.20000000000000001

>  <r_i_glide_ligand_efficiency>  (1) 
-0.29004759157565202

>  <r_i_glide_ligand_efficiency_ln>  (1) 
-1.6131311659303473

>  <r_i_glide_ligand_efficiency_sa>  (1) 
-0.82485676826747001

>  <r_i_glide_lipo>  (1) 
-2.6131891138720742

>  <r_i_glide_metal>  (1) 
-0

>  <r_i_glide_rewards>  (1) 
-2.2060399772727286

>  <r_lp_Energy>  (1) 
33.157472999999996

>  <s_epik_cmdline>  (1) 
J2VwaWtfcHl0aG9uJywgJy1waHQnLCAnMS4wJywgJy1waCcsICc3LjQnLCAnLXRuJywgJzgnLCAnLW1hJywgJzUwMCcsICctaW1hZScsICc8aW5maWxlLm1hZT4nLCAnLW9tYWUnLCAnPG91dGZpbGUubWFlPic=

>  <s_epik_input>  (1) 
W09IXVtDSDJdW0NIMl1jMVtjSF1bY0hdYyhbY0hdW2NIXTEpW0NASF0oW0NIMl0yKVtOSF1bQ0BIXShDMjMpW0NIXT1DKFtDSF09MylbQ0BIXTRbQ0BASF0oW0NAQEhdNDUpW0NIMl1bQ0gyXVtDSDJdNQ==

>  <s_glide_docking_method>  (1) 
confgen

>  <s_i_glide_gridfile>  (1) 
gpcr_drd2_6luq_protein_autoprepared_prepared

>  <s_lp_Force_Field>  (1) 
S-OPLS

>  <s_lp_Variant>  (1) 
DiffSBDD_83_num_sample_100-1

>  <s_m_source_file>  (1) 
generated__ligand_DiffSBDD_2026-05-06_prepared.sdf

>  <GenAI_Model>  (1) 
DiffSBDD

>  <Protein>  (1) 
generic_title2

$$$$
DiffSBDD_55_num_sample_100
     RDKit          3D

  0  0  0  0  0  0  0  0  0  0999 V3000
M  V30 BEGIN CTAB
M  V30 COUNTS 51 54 0 0 1
M  V30 BEGIN ATOM
M  V30 1 O 6.505785 4.842268 -13.549196 0
M  V30 2 C 12.075238 7.526754 -3.535354 0
M  V30 3 C 9.237514 7.654670 -11.575331 0
M  V30 4 C 11.842981 8.168716 -9.892238 0
M  V30 5 C 9.034851 4.947299 -10.710999 0 CFG=2
M  V30 6 C 8.432293 5.322369 -12.072421 0 CFG=1
M  V30 7 S 11.434840 9.913194 -4.745056 0
M  V30 8 C 12.234274 9.041352 -3.361915 0
M  V30 9 C 11.434848 7.274962 -4.894785 0
M  V30 10 C 7.416067 2.918240 -14.383558 0
M  V30 11 N 9.434852 7.412813 -10.128757 0 CFG=2 CHG=1
M  V30 12 C 7.254560 4.372375 -12.433694 0 CFG=2
M  V30 13 C 8.059528 6.823031 -12.096396 0 CFG=2
M  V30 14 C 7.703786 2.970336 -12.889553 0
M  V30 15 C 7.117343 4.366251 -14.733716 0
M  V30 16 C 11.078150 8.459300 -7.059514 0
M  V30 17 C 10.365427 8.374044 -9.484125 0 CFG=1
M  V30 18 C 10.801496 8.463709 -5.580953 0 CFG=2
M  V30 19 C 8.358956 5.263591 -9.395614 0
M  V30 20 O 11.434909 6.169274 -5.409037 0
M  V30 21 O 7.761054 7.293862 -13.393872 0
M  V30 22 C 10.114969 8.383991 -7.990481 0
M  V30 23 C 9.638311 5.984790 -9.763863 0 CFG=1
M  V30 24 H 13.038486 7.022094 -3.480392 0
M  V30 25 H 11.436073 7.106518 -2.758156 0
M  V30 26 H 10.144745 7.421325 -12.132946 0
M  V30 27 H 9.028347 8.712742 -11.735701 0
M  V30 28 H 12.466700 8.992939 -9.545556 0
M  V30 29 H 12.254059 7.247741 -9.484054 0
M  V30 30 H 11.970163 8.118005 -10.971145 0
M  V30 31 H 9.537092 3.981591 -10.731052 0
M  V30 32 H 9.225646 5.179521 -12.808441 0
M  V30 33 H 13.285636 9.327130 -3.320129 0
M  V30 34 H 11.776814 9.364691 -2.425554 0
M  V30 35 H 6.535430 2.302201 -14.566430 0
M  V30 36 H 8.234870 2.506626 -14.972036 0
M  V30 37 H 6.574131 4.303682 -11.583423 0
M  V30 38 H 7.171187 7.000582 -11.491662 0
M  V30 39 H 8.756592 2.783584 -12.675608 0
M  V30 40 H 7.124648 2.197574 -12.385457 0
M  V30 41 H 6.459230 4.479214 -15.593325 0
M  V30 42 H 8.036175 4.918301 -14.932179 0
M  V30 43 H 12.114241 8.520202 -7.355453 0
M  V30 44 H 10.054827 9.367864 -9.793462 0
M  V30 45 H 9.721325 8.404246 -5.473421 0
M  V30 46 H 8.433276 4.537008 -8.589815 0
M  V30 47 H 7.400267 5.769290 -9.448177 0
M  V30 48 H 8.340173 6.879479 -14.014436 0
M  V30 49 H 9.080120 8.324998 -7.677536 0
M  V30 50 H 10.500893 5.770126 -9.135190 0
M  V30 51 H 8.505698 7.635043 -9.748861 0
M  V30 END ATOM
M  V30 BEGIN BOND
M  V30 1 1 6 5
M  V30 2 1 8 2
M  V30 3 1 8 7
M  V30 4 1 9 2
M  V30 5 1 11 3
M  V30 6 1 12 1
M  V30 7 1 12 6
M  V30 8 1 13 3
M  V30 9 1 13 6
M  V30 10 1 14 10
M  V30 11 1 14 12
M  V30 12 1 15 1
M  V30 13 1 15 10
M  V30 14 1 17 4
M  V30 15 1 17 11
M  V30 16 1 18 7
M  V30 17 1 18 9
M  V30 18 1 18 16
M  V30 19 1 19 5
M  V30 20 2 20 9
M  V30 21 1 21 13
M  V30 22 2 22 16
M  V30 23 1 22 17
M  V30 24 1 23 5
M  V30 25 1 23 11
M  V30 26 1 23 19
M  V30 27 1 24 2
M  V30 28 1 25 2
M  V30 29 1 26 3
M  V30 30 1 27 3
M  V30 31 1 28 4
M  V30 32 1 29 4
M  V30 33 1 30 4
M  V30 34 1 5 31 CFG=3
M  V30 35 1 6 32 CFG=3
M  V30 36 1 33 8
M  V30 37 1 34 8
M  V30 38 1 35 10
M  V30 39 1 36 10
M  V30 40 1 12 37 CFG=1
M  V30 41 1 13 38 CFG=1
M  V30 42 1 39 14
M  V30 43 1 40 14
M  V30 44 1 41 15
M  V30 45 1 42 15
M  V30 46 1 43 16
M  V30 47 1 17 44 CFG=3
M  V30 48 1 18 45 CFG=3
M  V30 49 1 46 19
M  V30 50 1 47 19
M  V30 51 1 48 21
M  V30 52 1 49 22
M  V30 53 1 23 50 CFG=1
M  V30 54 1 11 51 CFG=1
M  V30 END BOND
M  V30 END CTAB
M  END
>  <i_epik_Tot_Q>  (1) 
1

>  <i_epik_Tot_abs_Q>  (1) 
1

>  <i_i_glide_confnum>  (1) 
173

>  <i_i_glide_lignum>  (1) 
104

>  <i_i_glide_posenum>  (1) 
259

>  <i_i_glide_rotatable_bonds>  (1) 
5

>  <i_lp_mmshare_version>  (1) 
72125

>  <i_m_source_file_index>  (1) 
56

>  <i_f3d_flags>  (1) 
0

>  <num_sample>  (1) 
100

>  <b_lp_Chiralities_Consistent>  (1) 
1

>  <r_epik_Charging_Adjusted_Penalty>  (1) 
0.1887110856522376

>  <r_epik_Ionization_Penalty>  (1) 
0.094355642401006162

>  <r_epik_Ionization_Penalty_Charging>  (1) 
0.094355542826118813

>  <r_epik_Ionization_Penalty_Neutral>  (1) 
9.9574887353862298e-08

>  <r_epik_State_Penalty>  (1) 
0.094355542826118799

>  <r_glide_ring_energy>  (1) 
1.2361918707854103

>  <r_i_docking_score>  (1) 
-6.6710704782375139

>  <r_i_glide_ecoul>  (1) 
-5.5418255604628071

>  <r_i_glide_eff_state_penalty>  (1) 
0.094355542826118799

>  <r_i_glide_einternal>  (1) 
7.7004173895577122

>  <r_i_glide_emodel>  (1) 
-50.702261519122978

>  <r_i_glide_emodel_strain>  (1) 
2.2326023785098528

>  <r_i_glide_energy>  (1) 
-38.194959575620622

>  <r_i_glide_erotb>  (1) 
0.49519417565235591

>  <r_i_glide_esite>  (1) 
-0.10000000000000001

>  <r_i_glide_evdw>  (1) 
-32.653134015157818

>  <r_i_glide_gscore>  (1) 
-6.7654260210636323

>  <r_i_glide_gscore_strain>  (1) 
0

>  <r_i_glide_hbond>  (1) 
-0.20000000000000001

>  <r_i_glide_ligand_efficiency>  (1) 
-0.2900465425320658

>  <r_i_glide_ligand_efficiency_ln>  (1) 
-1.6131253315605663

>  <r_i_glide_ligand_efficiency_sa>  (1) 
-0.82485378492705475

>  <r_i_glide_lipo>  (1) 
-2.2466613298117024

>  <r_i_glide_metal>  (1) 
-0

>  <r_i_glide_rewards>  (1) 
-2.2500283320769743

>  <r_lp_Energy>  (1) 
21.402259999999998

>  <r_lp_tautomer_probability>  (1) 
0.99995000000000001

>  <s_epik_cmdline>  (1) 
J2VwaWtfcHl0aG9uJywgJy1waHQnLCAnMS4wJywgJy1waCcsICc3LjQnLCAnLXRuJywgJzgnLCAnLW1hJywgJzUwMCcsICctaW1hZScsICc8aW5maWxlLm1hZT4nLCAnLW9tYWUnLCAnPG91dGZpbGUubWFlPic=

>  <s_epik_input>  (1) 
W0NIMl0xW0NIMl1bQ0gyXU9bQ0BASF0xW0NASF0yW0NASF0oW09IXSlbQ0gyXU4oW0NASF0oW0NASF0yMylbQ0gyXTMpW0NASF0oW0NIM10pXFtDSF09W0NIXVxbQ0BASF00U1tDSDJdW0NIMl1DND1P

>  <s_glide_docking_method>  (1) 
confgen

>  <s_i_glide_gridfile>  (1) 
gpcr_drd2_6luq_protein_autoprepared_prepared

>  <s_lp_Force_Field>  (1) 
S-OPLS

>  <s_lp_Variant>  (1) 
DiffSBDD_55_num_sample_100-5

>  <s_m_source_file>  (1) 
generated__ligand_DiffSBDD_2026-05-06_prepared.sdf

>  <GenAI_Model>  (1) 
DiffSBDD

>  <Protein>  (1) 
generic_title2

$$$$
DiffSBDD_55_num_sample_100
     RDKit          3D

  0  0  0  0  0  0  0  0  0  0999 V3000
M  V30 BEGIN CTAB
M  V30 COUNTS 51 54 0 0 1
M  V30 BEGIN ATOM
M  V30 1 O 8.125665 5.114397 -13.912300 0
M  V30 2 C 12.234578 7.969179 -3.534923 0
M  V30 3 C 9.001836 5.227051 -10.005573 0
M  V30 4 C 9.034877 6.563533 -7.160000 0
M  V30 5 C 9.180129 7.395906 -11.891720 0 CFG=2
M  V30 6 C 7.896534 6.574488 -11.961356 0 CFG=1
M  V30 7 S 11.353442 9.987635 -5.091677 0
M  V30 8 C 12.635984 9.369255 -3.978473 0
M  V30 9 C 11.434872 7.380241 -4.691770 0
M  V30 10 C 5.921754 4.423889 -13.488035 0
M  V30 11 N 9.434836 6.566302 -9.546898 0 CFG=1 CHG=1
M  V30 12 C 7.442138 6.264229 -13.407563 0 CFG=2
M  V30 13 C 7.869417 5.335310 -11.021122 0 CFG=2
M  V30 14 C 5.947279 5.935110 -13.511918 0
M  V30 15 C 7.190171 4.097367 -14.271910 0
M  V30 16 C 11.755836 8.164440 -7.077673 0
M  V30 17 C 10.131894 6.489932 -8.224710 0 CFG=1
M  V30 18 C 10.977694 8.361306 -5.777706 0 CFG=2
M  V30 19 C 10.566099 6.809378 -11.891875 0
M  V30 20 O 11.193157 6.181181 -4.754263 0
M  V30 21 O 6.665184 5.369294 -10.291680 0
M  V30 22 C 11.396750 7.371914 -8.121970 0
M  V30 23 C 10.001644 7.445959 -10.618391 0 CFG=1
M  V30 24 H 13.104653 7.355582 -3.299863 0
M  V30 25 H 11.597740 8.013770 -2.651830 0
M  V30 26 H 8.666123 4.612681 -9.169419 0
M  V30 27 H 9.835006 4.660257 -10.411226 0
M  V30 28 H 9.338779 6.261390 -6.169249 0
M  V30 29 H 8.581721 7.551847 -7.130414 0
M  V30 30 H 8.223398 5.876104 -7.391588 0
M  V30 31 H 9.089923 8.346623 -12.414250 0
M  V30 32 H 7.158979 7.283264 -11.581738 0
M  V30 33 H 13.580068 9.341640 -4.524746 0
M  V30 34 H 12.763359 10.026523 -3.120677 0
M  V30 35 H 5.009493 4.002893 -13.892827 0
M  V30 36 H 5.979737 4.041372 -12.472445 0
M  V30 37 H 7.659876 7.121022 -14.045757 0
M  V30 38 H 7.900295 4.401496 -11.577891 0
M  V30 39 H 5.342512 6.385141 -12.725111 0
M  V30 40 H 5.559937 6.289867 -14.468141 0
M  V30 41 H 7.001861 4.156073 -15.344251 0
M  V30 42 H 7.578515 3.103886 -14.048040 0
M  V30 43 H 12.679776 8.720221 -7.152434 0
M  V30 44 H 10.558941 5.488377 -8.145112 0
M  V30 45 H 9.903869 8.360406 -5.891532 0
M  V30 46 H 11.327686 7.369213 -12.428607 0
M  V30 47 H 10.634776 5.735082 -12.031592 0
M  V30 48 H 6.587112 6.248168 -9.906487 0
M  V30 49 H 12.054797 7.337262 -8.979009 0
M  V30 50 H 10.303743 8.438899 -10.290809 0
M  V30 51 H 8.550150 7.029320 -9.330984 0
M  V30 END ATOM
M  V30 BEGIN BOND
M  V30 1 1 6 5
M  V30 2 1 8 2
M  V30 3 1 8 7
M  V30 4 1 9 2
M  V30 5 1 11 3
M  V30 6 1 12 1
M  V30 7 1 12 6
M  V30 8 1 13 3
M  V30 9 1 13 6
M  V30 10 1 14 10
M  V30 11 1 14 12
M  V30 12 1 15 1
M  V30 13 1 15 10
M  V30 14 1 17 4
M  V30 15 1 17 11
M  V30 16 1 18 7
M  V30 17 1 18 9
M  V30 18 1 18 16
M  V30 19 1 19 5
M  V30 20 2 20 9
M  V30 21 1 21 13
M  V30 22 2 22 16
M  V30 23 1 22 17
M  V30 24 1 23 5
M  V30 25 1 23 11
M  V30 26 1 23 19
M  V30 27 1 24 2
M  V30 28 1 25 2
M  V30 29 1 26 3
M  V30 30 1 27 3
M  V30 31 1 28 4
M  V30 32 1 29 4
M  V30 33 1 30 4
M  V30 34 1 5 31 CFG=3
M  V30 35 1 6 32 CFG=1
M  V30 36 1 33 8
M  V30 37 1 34 8
M  V30 38 1 35 10
M  V30 39 1 36 10
M  V30 40 1 12 37 CFG=3
M  V30 41 1 13 38 CFG=3
M  V30 42 1 39 14
M  V30 43 1 40 14
M  V30 44 1 41 15
M  V30 45 1 42 15
M  V30 46 1 43 16
M  V30 47 1 17 44 CFG=3
M  V30 48 1 18 45 CFG=3
M  V30 49 1 46 19
M  V30 50 1 47 19
M  V30 51 1 48 21
M  V30 52 1 49 22
M  V30 53 1 23 50 CFG=1
M  V30 54 1 11 51 CFG=1
M  V30 END BOND
M  V30 END CTAB
M  END
>  <i_epik_Tot_Q>  (1) 
1

>  <i_epik_Tot_abs_Q>  (1) 
1

>  <i_i_glide_confnum>  (1) 
167

>  <i_i_glide_lignum>  (1) 
107

>  <i_i_glide_posenum>  (1) 
307

>  <i_i_glide_rotatable_bonds>  (1) 
5

>  <i_lp_mmshare_version>  (1) 
72125

>  <i_m_source_file_index>  (1) 
56

>  <i_f3d_flags>  (1) 
0

>  <num_sample>  (1) 
100

>  <b_lp_Chiralities_Consistent>  (1) 
1

>  <r_epik_Charging_Adjusted_Penalty>  (1) 
0.1887110856522376

>  <r_epik_Ionization_Penalty>  (1) 
0.094355642401006162

>  <r_epik_Ionization_Penalty_Charging>  (1) 
0.094355542826118813

>  <r_epik_Ionization_Penalty_Neutral>  (1) 
9.9574887353862298e-08

>  <r_epik_State_Penalty>  (1) 
0.094355542826118799

>  <r_glide_ring_energy>  (1) 
1.5489933511600571

>  <r_i_docking_score>  (1) 
-6.6698801196503936

>  <r_i_glide_ecoul>  (1) 
-6.1594510543142942

>  <r_i_glide_eff_state_penalty>  (1) 
0.094355542826118799

>  <r_i_glide_einternal>  (1) 
9.6817350719728665

>  <r_i_glide_emodel>  (1) 
-53.361361784475648

>  <r_i_glide_emodel_strain>  (1) 
1.0637539398462224

>  <r_i_glide_energy>  (1) 
-42.953297412629631

>  <r_i_glide_erotb>  (1) 
0.49519417565235591

>  <r_i_glide_esite>  (1) 
-0.10000000000000001

>  <r_i_glide_evdw>  (1) 
-36.793846358315335

>  <r_i_glide_gscore>  (1) 
-6.7642356624765121

>  <r_i_glide_gscore_strain>  (1) 
0

>  <r_i_glide_hbond>  (1) 
-0.35999999999999999

>  <r_i_glide_ligand_efficiency>  (1) 
-0.28999478781088667

>  <r_i_glide_ligand_efficiency_ln>  (1) 
-1.6128374920606257

>  <r_i_glide_ligand_efficiency_sa>  (1) 
-0.82470660138444196

>  <r_i_glide_lipo>  (1) 
-1.9993867160459862

>  <r_i_glide_metal>  (1) 
-0

>  <r_i_glide_rewards>  (1) 
-2.0364331460199701

>  <r_lp_Energy>  (1) 
19.031651

>  <r_lp_tautomer_probability>  (1) 
0.99995000000000001

>  <s_epik_cmdline>  (1) 
J2VwaWtfcHl0aG9uJywgJy1waHQnLCAnMS4wJywgJy1waCcsICc3LjQnLCAnLXRuJywgJzgnLCAnLW1hJywgJzUwMCcsICctaW1hZScsICc8aW5maWxlLm1hZT4nLCAnLW9tYWUnLCAnPG91dGZpbGUubWFlPic=

>  <s_epik_input>  (1) 
W0NIMl0xW0NIMl1bQ0gyXU9bQ0BASF0xW0NASF0yW0NASF0oW09IXSlbQ0gyXU4oW0NASF0oW0NASF0yMylbQ0gyXTMpW0NASF0oW0NIM10pL1tDSF09W0NIXVxbQ0BASF00U1tDSDJdW0NIMl1DND1P

>  <s_glide_docking_method>  (1) 
confgen

>  <s_i_glide_gridfile>  (1) 
gpcr_drd2_6luq_protein_autoprepared_prepared

>  <s_lp_Force_Field>  (1) 
S-OPLS

>  <s_lp_Variant>  (1) 
DiffSBDD_55_num_sample_100-8

>  <s_m_source_file>  (1) 
generated__ligand_DiffSBDD_2026-05-06_prepared.sdf

>  <GenAI_Model>  (1) 
DiffSBDD

>  <Protein>  (1) 
generic_title2

$$$$
DiffSBDD_59_num_sample_100
     RDKit          3D

  0  0  0  0  0  0  0  0  0  0999 V3000
M  V30 BEGIN CTAB
M  V30 COUNTS 74 77 0 0 1
M  V30 BEGIN ATOM
M  V30 1 C 6.389117 4.274493 -13.063930 0
M  V30 2 N 10.492244 7.673969 -8.953447 0 CFG=2 CHG=1
M  V30 3 C 11.618256 8.629095 -9.157573 0
M  V30 4 C 9.777146 7.144563 -10.183549 0 CFG=1
M  V30 5 C 7.425966 2.696539 -16.320400 0
M  V30 6 C 7.399884 4.190899 -14.233646 0 CFG=2
M  V30 7 C 5.435032 -2.130717 -22.977475 0
M  V30 8 C 6.385246 -3.022513 -19.555228 0
M  V30 9 C 7.276038 1.648685 -14.113117 0
M  V30 10 C 5.570543 -2.197286 -20.354510 0
M  V30 11 O 8.320871 6.706302 -13.088081 0
M  V30 12 O 5.999913 -3.341214 -22.455687 0
M  V30 13 C 5.289625 -0.901235 -19.892496 0
M  V30 14 C 7.226587 0.381456 -14.716855 0
M  V30 15 C 12.635223 8.556786 -7.999947 0
M  V30 16 C 7.363717 2.814367 -14.906540 0
M  V30 17 C 6.653283 -1.377094 -17.945962 0
M  V30 18 C 7.368376 1.421542 -16.920632 0
M  V30 19 N 6.911032 -2.633445 -18.372743 0
M  V30 20 C 9.563352 8.161478 -7.883568 0
M  V30 21 N 10.234862 5.779044 -12.306451 0
M  V30 22 C 7.551337 3.933706 -17.197590 0
M  V30 23 C 8.914118 5.889192 -9.831284 0
M  V30 24 O 9.034839 8.292402 -10.538065 0
M  V30 25 N 7.193064 -1.030680 -16.691701 0
M  V30 26 C 9.113965 5.765995 -13.044268 0
M  V30 27 C 7.251365 0.258201 -16.118908 0
M  V30 28 C 12.234825 9.260415 -6.707931 0
M  V30 29 C 5.833240 -0.480634 -18.673437 0
M  V30 30 C 8.859165 4.495885 -13.844417 0
M  V30 31 C 10.418859 6.569300 -6.048535 0
M  V30 32 C 5.009053 -2.688735 -21.647916 0 CFG=2
M  V30 33 C 10.057310 8.008981 -6.440107 0 CFG=1
M  V30 34 C 10.641849 6.911601 -11.473950 0
M  V30 35 C 11.108774 9.013134 -6.024955 0
M  V30 36 H 5.404949 3.926631 -13.379513 0
M  V30 37 H 6.696767 3.681560 -12.203220 0
M  V30 38 H 6.255666 5.297127 -12.712307 0
M  V30 39 H 12.172987 8.415365 -10.065709 0
M  V30 40 H 11.245649 9.645272 -9.290237 0
M  V30 41 H 7.076745 4.954368 -14.938292 0
M  V30 42 H 4.779955 -2.268715 -23.833366 0
M  V30 43 H 6.110715 -1.277986 -23.000110 0
M  V30 44 H 6.618993 -4.028255 -19.872390 0
M  V30 45 H 7.243467 1.726704 -13.037424 0
M  V30 46 H 4.658291 -0.240397 -20.463940 0
M  V30 47 H 7.153639 -0.503156 -14.100155 0
M  V30 48 H 12.859258 7.516114 -7.772482 0
M  V30 49 H 13.586501 8.969303 -8.330959 0
M  V30 50 H 7.428390 1.338860 -17.993806 0
M  V30 51 H 9.262987 9.190220 -8.075082 0
M  V30 52 H 8.634803 7.620150 -7.891714 0
M  V30 53 H 10.844722 4.971506 -12.336009 0
M  V30 54 H 7.672087 3.655604 -18.245303 0
M  V30 55 H 6.662587 4.561630 -17.127213 0
M  V30 56 H 8.423050 4.524748 -16.915705 0
M  V30 57 H 9.535320 4.994732 -9.786429 0
M  V30 58 H 8.375974 5.912347 -8.889282 0
M  V30 59 H 8.133073 5.712802 -10.568263 0
M  V30 60 H 8.129273 8.169307 -10.197378 0
M  V30 61 H 7.483814 -1.807468 -16.100139 0
M  V30 62 H 12.929062 9.996819 -6.326906 0
M  V30 63 H 5.602093 0.498750 -18.297031 0
M  V30 64 H 9.477453 4.555222 -14.741014 0
M  V30 65 H 9.241916 3.666449 -13.248216 0
M  V30 66 H 10.594831 6.486940 -4.975119 0
M  V30 67 H 9.602496 5.889451 -6.295598 0
M  V30 68 H 11.314199 6.213683 -6.557487 0
M  V30 69 H 4.072369 -3.233257 -21.547994 0
M  V30 70 H 9.183988 8.273778 -5.847717 0
M  V30 71 H 10.634962 7.769325 -12.135149 0
M  V30 72 H 11.692619 6.761433 -11.255966 0
M  V30 73 H 10.915642 9.557776 -5.111736 0
M  V30 74 H 10.921213 6.845548 -8.568517 0
M  V30 END ATOM
M  V30 BEGIN BOND
M  V30 1 1 3 2
M  V30 2 1 4 2
M  V30 3 1 6 1
M  V30 4 2 10 8
M  V30 5 1 12 7
M  V30 6 1 13 10
M  V30 7 2 14 9
M  V30 8 1 15 3
M  V30 9 2 16 5
M  V30 10 1 16 6
M  V30 11 1 16 9
M  V30 12 1 18 5
M  V30 13 1 19 8
M  V30 14 2 19 17
M  V30 15 1 20 2
M  V30 16 1 22 5
M  V30 17 1 23 4
M  V30 18 1 4 24 CFG=3
M  V30 19 1 25 17
M  V30 20 2 26 11
M  V30 21 1 26 21
M  V30 22 1 27 14
M  V30 23 2 27 18
M  V30 24 1 27 25
M  V30 25 1 28 15
M  V30 26 2 29 13
M  V30 27 1 29 17
M  V30 28 1 30 6
M  V30 29 1 30 26
M  V30 30 1 32 7
M  V30 31 1 32 10
M  V30 32 1 32 12
M  V30 33 1 33 20
M  V30 34 1 33 31
M  V30 35 1 34 4
M  V30 36 1 34 21
M  V30 37 2 35 28
M  V30 38 1 35 33
M  V30 39 1 36 1
M  V30 40 1 37 1
M  V30 41 1 38 1
M  V30 42 1 39 3
M  V30 43 1 40 3
M  V30 44 1 6 41 CFG=3
M  V30 45 1 42 7
M  V30 46 1 43 7
M  V30 47 1 44 8
M  V30 48 1 45 9
M  V30 49 1 46 13
M  V30 50 1 47 14
M  V30 51 1 48 15
M  V30 52 1 49 15
M  V30 53 1 50 18
M  V30 54 1 51 20
M  V30 55 1 52 20
M  V30 56 1 53 21
M  V30 57 1 54 22
M  V30 58 1 55 22
M  V30 59 1 56 22
M  V30 60 1 57 23
M  V30 61 1 58 23
M  V30 62 1 59 23
M  V30 63 1 60 24
M  V30 64 1 61 25
M  V30 65 1 62 28
M  V30 66 1 63 29
M  V30 67 1 64 30
M  V30 68 1 65 30
M  V30 69 1 66 31
M  V30 70 1 67 31
M  V30 71 1 68 31
M  V30 72 1 32 69 CFG=1
M  V30 73 1 33 70 CFG=1
M  V30 74 1 71 34
M  V30 75 1 72 34
M  V30 76 1 73 35
M  V30 77 1 2 74 CFG=1
M  V30 END BOND
M  V30 END CTAB
M  END
>  <i_epik_Tot_Q>  (1) 
1

>  <i_epik_Tot_abs_Q>  (1) 
1

>  <i_i_glide_confnum>  (1) 
469

>  <i_i_glide_lignum>  (1) 
118

>  <i_i_glide_posenum>  (1) 
91

>  <i_i_glide_rotatable_bonds>  (1) 
11

>  <i_lp_mmshare_version>  (1) 
72125

>  <i_m_source_file_index>  (1) 
60

>  <i_f3d_flags>  (1) 
0

>  <num_sample>  (1) 
100

>  <b_lp_Chiralities_Consistent>  (1) 
1

>  <r_epik_Charging_Adjusted_Penalty>  (1) 
1.3886415501160498

>  <r_epik_Ionization_Penalty>  (1) 
0.71269190361940904

>  <r_epik_Ionization_Penalty_Charging>  (1) 
0.69432077505802503

>  <r_epik_Ionization_Penalty_Neutral>  (1) 
0.018371128561383968

>  <r_epik_State_Penalty>  (1) 
0.69432077505802492

>  <r_glide_ring_energy>  (1) 
0

>  <r_i_docking_score>  (1) 
-6.6549448439547492

>  <r_i_glide_ecoul>  (1) 
-14.9162835753945

>  <r_i_glide_eff_state_penalty>  (1) 
0.69432077505802492

>  <r_i_glide_einternal>  (1) 
10.532698903743203

>  <r_i_glide_emodel>  (1) 
-56.315353078152654

>  <r_i_glide_emodel_strain>  (1) 
1.5477641654653524

>  <r_i_glide_energy>  (1) 
-46.422479339963182

>  <r_i_glide_erotb>  (1) 
0.88120926584797454

>  <r_i_glide_esite>  (1) 
-0.16590745758856104

>  <r_i_glide_evdw>  (1) 
-31.506195764568684

>  <r_i_glide_gscore>  (1) 
-7.3492656190127743

>  <r_i_glide_gscore_strain>  (1) 
0

>  <r_i_glide_hbond>  (1) 
-0.63683982196302913

>  <r_i_glide_ligand_efficiency>  (1) 
-0.19014128125584998

>  <r_i_glide_ligand_efficiency_ln>  (1) 
-1.4609080917910922

>  <r_i_glide_ligand_efficiency_sa>  (1) 
-0.62196473929210416

>  <r_i_glide_lipo>  (1) 
-2.6175995357809074

>  <r_i_glide_metal>  (1) 
-0

>  <r_i_glide_rewards>  (1) 
-0.99737574499064052

>  <r_lp_Energy>  (1) 
32.050570999999998

>  <r_lp_tautomer_probability>  (1) 
0.99999977220005165

>  <s_epik_cmdline>  (1) 
J2VwaWtfcHl0aG9uJywgJy1waHQnLCAnMS4wJywgJy1waCcsICc3LjQnLCAnLXRuJywgJzgnLCAnLW1hJywgJzUwMCcsICctaW1hZScsICc8aW5maWxlLm1hZT4nLCAnLW9tYWUnLCAnPG91dGZpbGUubWFlPic=

>  <s_epik_input>  (1) 
W0NIMl0xW0NAQEhdKFtDSDNdKVtDSF09W0NIXVtDSDJdW0NIMl1OMVtDQEBdKFtDSDNdKShbT0hdKVtDSDJdW05IXUMoPU8pW0NIMl1bQ0BIXShbQ0gzXSljKGMyW0NIM10pW2NIXVtjSF1jKFtjSF0yKVtOSF1jKFtjSF1bY0hdMyluW2NIXWMzW0NASF00W0NIMl1PNA==

>  <s_glide_docking_method>  (1) 
confgen

>  <s_i_glide_gridfile>  (1) 
gpcr_drd2_6luq_protein_autoprepared_prepared

>  <s_lp_Force_Field>  (1) 
S-OPLS

>  <s_lp_Variant>  (1) 
DiffSBDD_59_num_sample_100-2

>  <s_m_source_file>  (1) 
generated__ligand_DiffSBDD_2026-05-06_prepared.sdf

>  <GenAI_Model>  (1) 
DiffSBDD

>  <Protein>  (1) 
generic_title2

$$$$
DiffSBDD_40_num_sample_100
     RDKit          3D

  0  0  0  0  0  0  0  0  0  0999 V3000
M  V30 BEGIN CTAB
M  V30 COUNTS 62 66 0 0 1
M  V30 BEGIN ATOM
M  V30 1 F 11.539006 10.569301 -5.331269 0
M  V30 2 C 8.669635 5.960044 -11.918356 0 CFG=2
M  V30 3 O 5.439347 3.769303 -13.455438 0
M  V30 4 C 7.815204 3.209795 -18.688542 0
M  V30 5 C 8.091307 6.974357 -12.907066 0
M  V30 6 C 6.457676 4.074420 -12.843377 0
M  V30 7 C 8.668804 4.435005 -12.192322 0 CFG=1
M  V30 8 C 10.201898 7.389369 -8.759394 0
M  V30 9 C 6.445308 0.134229 -18.293172 0
M  V30 10 F 12.224734 8.737580 -4.411154 0
M  V30 11 O 8.213485 4.250200 -14.594214 0
M  V30 12 C 6.035238 4.978121 -18.837181 0
M  V30 13 F 13.492410 9.769301 -5.837634 0
M  V30 14 O 5.512966 -0.137225 -16.048459 0
M  V30 15 C 10.268955 8.172532 -6.453505 0
M  V30 16 N 9.434839 6.744592 -9.786484 0
M  V30 17 N 7.949815 2.124695 -17.708928 0
M  V30 18 C 12.234884 9.452977 -5.537297 0
M  V30 19 C 12.173916 8.568567 -7.924468 0
M  V30 20 C 7.710829 5.045157 -11.160164 0 CFG=2
M  V30 21 C 9.762241 6.600569 -11.092903 0
M  V30 22 C 8.008548 2.146201 -13.257486 0
M  V30 23 C 7.857423 3.683813 -13.321228 0 CFG=2
M  V30 24 O 10.826193 6.969301 -11.585840 0
M  V30 25 C 6.694612 1.399847 -17.506107 0 CFG=2
M  V30 26 C 7.034840 4.405493 -18.146773 0
M  V30 27 C 7.467798 4.910640 -16.777626 0
M  V30 28 C 6.691807 0.066694 -16.799465 0 CFG=2
M  V30 29 C 11.505458 7.911891 -8.977328 0
M  V30 30 C 7.616369 3.741997 -15.790071 0 CFG=1
M  V30 31 C 9.603165 7.514755 -7.491763 0
M  V30 32 C 8.484894 2.647397 -16.450095 0
M  V30 33 N 6.474506 4.748295 -11.728383 0
M  V30 34 C 11.545756 8.710020 -6.663639 0
M  V30 35 H 8.808489 3.564078 -18.966795 0
M  V30 36 H 7.353602 2.836754 -19.603815 0
M  V30 37 H 7.024041 7.118652 -12.741565 0
M  V30 38 H 8.557852 7.956340 -12.811891 0
M  V30 39 H 8.234836 6.637232 -13.931606 0
M  V30 40 H 9.529826 3.886586 -11.813707 0
M  V30 41 H 7.239823 -0.219708 -18.947187 0
M  V30 42 H 5.432915 -0.040683 -18.653230 0
M  V30 43 H 5.496042 5.825379 -18.438244 0
M  V30 44 H 5.744647 4.605611 -19.808667 0
M  V30 45 H 5.465254 -1.046757 -15.789885 0
M  V30 46 H 9.793778 8.275517 -5.491670 0
M  V30 47 H 8.513284 6.426095 -9.511135 0
M  V30 48 H 13.161637 8.969507 -8.087181 0
M  V30 49 H 7.878147 4.744381 -10.126908 0
M  V30 50 H 7.714611 1.745332 -12.291670 0
M  V30 51 H 7.372675 1.644939 -13.986891 0
M  V30 52 H 9.034836 1.827013 -13.421676 0
M  V30 53 H 5.846916 2.061609 -17.354529 0
M  V30 54 H 8.426958 5.416700 -16.892085 0
M  V30 55 H 6.762827 5.648293 -16.392229 0
M  V30 56 H 7.609387 -0.357048 -16.394960 0
M  V30 57 H 11.992051 7.825876 -9.928024 0
M  V30 58 H 6.634839 3.333942 -15.577913 0
M  V30 59 H 8.615389 7.114538 -7.323163 0
M  V30 60 H 8.634882 1.814768 -15.767861 0
M  V30 61 H 9.479042 3.055054 -16.636754 0
M  V30 62 H 5.624143 5.072351 -11.291176 0
M  V30 END ATOM
M  V30 BEGIN BOND
M  V30 1 1 2 5 CFG=3
M  V30 2 2 6 3
M  V30 3 1 7 2
M  V30 4 1 16 8
M  V30 5 1 17 4
M  V30 6 1 18 1
M  V30 7 1 18 10
M  V30 8 1 18 13
M  V30 9 1 20 2
M  V30 10 1 20 7
M  V30 11 1 21 2
M  V30 12 1 21 16
M  V30 13 1 23 6
M  V30 14 1 23 7
M  V30 15 1 23 11 CFG=3
M  V30 16 1 23 22
M  V30 17 2 24 21
M  V30 18 1 25 9
M  V30 19 1 25 17
M  V30 20 1 26 4
M  V30 21 2 26 12
M  V30 22 1 27 26
M  V30 23 1 28 9
M  V30 24 1 28 14
M  V30 25 1 28 25
M  V30 26 1 29 8
M  V30 27 2 29 19
M  V30 28 1 30 11
M  V30 29 1 30 27
M  V30 30 2 31 8
M  V30 31 1 31 15
M  V30 32 1 32 17
M  V30 33 1 32 30
M  V30 34 1 33 6
M  V30 35 1 33 20
M  V30 36 2 34 15
M  V30 37 1 34 18
M  V30 38 1 34 19
M  V30 39 1 35 4
M  V30 40 1 36 4
M  V30 41 1 37 5
M  V30 42 1 38 5
M  V30 43 1 39 5
M  V30 44 1 7 40 CFG=1
M  V30 45 1 41 9
M  V30 46 1 42 9
M  V30 47 1 43 12
M  V30 48 1 44 12
M  V30 49 1 45 14
M  V30 50 1 46 15
M  V30 51 1 47 16
M  V30 52 1 48 19
M  V30 53 1 20 49 CFG=1
M  V30 54 1 50 22
M  V30 55 1 51 22
M  V30 56 1 52 22
M  V30 57 1 25 53 CFG=1
M  V30 58 1 54 27
M  V30 59 1 55 27
M  V30 60 1 28 56 CFG=3
M  V30 61 1 57 29
M  V30 62 1 30 58 CFG=1
M  V30 63 1 59 31
M  V30 64 1 60 32
M  V30 65 1 61 32
M  V30 66 1 62 33
M  V30 END BOND
M  V30 END CTAB
M  END
>  <i_epik_Tot_Q>  (1) 
0

>  <i_epik_Tot_abs_Q>  (1) 
0

>  <i_i_glide_confnum>  (1) 
129

>  <i_i_glide_lignum>  (1) 
72

>  <i_i_glide_posenum>  (1) 
254

>  <i_i_glide_rotatable_bonds>  (1) 
8

>  <i_lp_mmshare_version>  (1) 
72125

>  <i_m_source_file_index>  (1) 
41

>  <i_f3d_flags>  (1) 
0

>  <num_sample>  (1) 
100

>  <b_lp_Chiralities_Consistent>  (1) 
1

>  <r_epik_Charging_Adjusted_Penalty>  (1) 
0.63391490954422869

>  <r_epik_Ionization_Penalty>  (1) 
0.63391730383191769

>  <r_epik_Ionization_Penalty_Charging>  (1) 
0

>  <r_epik_Ionization_Penalty_Neutral>  (1) 
0.63391730383191769

>  <r_epik_State_Penalty>  (1) 
0.63391490954422869

>  <r_glide_ring_energy>  (1) 
0

>  <r_i_docking_score>  (1) 
-6.6451544463331942

>  <r_i_glide_ecoul>  (1) 
-4.6672557149465383

>  <r_i_glide_eff_state_penalty>  (1) 
0.63391490954422869

>  <r_i_glide_einternal>  (1) 
10.128161552929463

>  <r_i_glide_emodel>  (1) 
-60.983438746989336

>  <r_i_glide_emodel_strain>  (1) 
1.6420230394508621

>  <r_i_glide_energy>  (1) 
-48.383775094715716

>  <r_i_glide_erotb>  (1) 
0.52901650880821682

>  <r_i_glide_esite>  (1) 
-0.15581967120013479

>  <r_i_glide_evdw>  (1) 
-43.716519379769174

>  <r_i_glide_gscore>  (1) 
-7.2790693558774233

>  <r_i_glide_gscore_strain>  (1) 
0

>  <r_i_glide_hbond>  (1) 
-0.046163005634481731

>  <r_i_glide_ligand_efficiency>  (1) 
-0.19544571900979982

>  <r_i_glide_ligand_efficiency_ln>  (1) 
-1.468101007463763

>  <r_i_glide_ligand_efficiency_sa>  (1) 
-0.63316825781331054

>  <r_i_glide_lipo>  (1) 
-2.463707061264754

>  <r_i_glide_metal>  (1) 
-0

>  <r_i_glide_rewards>  (1) 
-2.25648180035583

>  <r_lp_Energy>  (1) 
30.893163999999999

>  <s_epik_cmdline>  (1) 
J2VwaWtfcHl0aG9uJywgJy1waHQnLCAnMS4wJywgJy1waCcsICc3LjQnLCAnLXRuJywgJzgnLCAnLW1hJywgJzUwMCcsICctaW1hZScsICc8aW5maWxlLm1hZT4nLCAnLW9tYWUnLCAnPG91dGZpbGUubWFlPic=

>  <s_epik_input>  (1) 
RkMoRikoRiljKFtjSF1bY0hdMSlbY0hdW2NIXWMxW05IXUMoPU8pW0NAXTIoW0NIM10pW0NASF0oW0NASF0yMylbTkhdQyg9TylbQ0BAXTMoW0NIM10pT1tDQEhdKFtDSDJdNClbQ0gyXUMoPVtDSDJdKVtDSDJdTjRbQ0BIXTVbQ0gyXVtDQEBIXTVbT0hd

>  <s_glide_docking_method>  (1) 
confgen

>  <s_i_glide_gridfile>  (1) 
gpcr_drd2_6luq_protein_autoprepared_prepared

>  <s_lp_Force_Field>  (1) 
S-OPLS

>  <s_lp_Variant>  (1) 
DiffSBDD_40_num_sample_100-3

>  <s_m_source_file>  (1) 
generated__ligand_DiffSBDD_2026-05-06_prepared.sdf

>  <GenAI_Model>  (1) 
DiffSBDD

>  <Protein>  (1) 
generic_title2

$$$$
DiffSBDD_31_num_sample_100
     RDKit          3D

  0  0  0  0  0  0  0  0  0  0999 V3000
M  V30 BEGIN CTAB
M  V30 COUNTS 50 53 0 0 1
M  V30 BEGIN ATOM
M  V30 1 C 9.713843 6.856891 -11.642182 0
M  V30 2 C 10.124673 7.076361 -9.155241 0
M  V30 3 C 10.929354 7.852403 -7.014011 0
M  V30 4 O 13.034633 8.466992 -1.801921 0
M  V30 5 C 7.652317 2.324555 -14.321448 0
M  V30 6 C 7.292864 3.324798 -13.206745 0 CFG=1
M  V30 7 C 11.287627 6.971692 -4.690013 0
M  V30 8 N 9.661541 6.368173 -10.265051 0
M  V30 9 C 11.434838 8.005006 -5.646886 0
M  V30 10 O 11.688625 6.169301 -2.461005 0
M  V30 11 S 10.028095 6.419514 -7.515378 0
M  V30 12 C 11.834839 7.136864 -3.392344 0
M  V30 13 C 8.296824 7.036330 -12.200720 0
M  V30 14 C 8.003907 4.696537 -13.309489 0 CFG=1
M  V30 15 C 8.367820 4.285509 -15.798117 0 CFG=1
M  V30 16 N 11.130644 8.730592 -8.000465 0
M  V30 17 Cl 8.150117 4.982825 -17.423594 0
M  V30 18 C 9.027422 5.050069 -10.232494 0
M  V30 19 C 7.823278 5.253619 -14.741540 0
M  V30 20 N 10.683881 8.286439 -9.223583 0
M  V30 21 C 12.517588 8.309853 -3.057802 0
M  V30 22 C 12.126566 9.185371 -5.291816 0
M  V30 23 C 12.670828 9.321117 -4.004034 0
M  V30 24 C 7.529317 5.699675 -12.205863 0
M  V30 25 C 7.657120 2.928460 -15.732801 0
M  V30 26 C 7.587207 5.128168 -10.765241 0
M  V30 27 Cl 5.531373 3.570588 -13.091805 0
M  V30 28 H 10.234908 7.812322 -11.688203 0
M  V30 29 H 10.294490 6.168603 -12.256669 0
M  V30 30 H 13.408782 9.326086 -1.646321 0
M  V30 31 H 6.976611 1.469279 -14.285425 0
M  V30 32 H 8.634653 1.912863 -14.106368 0
M  V30 33 H 7.588617 2.829310 -12.291667 0
M  V30 34 H 10.766954 6.060324 -4.941754 0
M  V30 35 H 12.123798 6.416472 -1.658292 0
M  V30 36 H 7.768421 7.746355 -11.562996 0
M  V30 37 H 8.313924 7.506729 -13.179527 0
M  V30 38 H 9.069144 4.509721 -13.168860 0
M  V30 39 H 9.441814 4.169286 -15.653609 0
M  V30 40 H 9.614033 4.352110 -10.830778 0
M  V30 41 H 9.013246 4.639691 -9.224476 0
M  V30 42 H 6.771156 5.466423 -14.935478 0
M  V30 43 H 8.353363 6.191783 -14.864499 0
M  V30 44 H 12.260160 9.975439 -6.016682 0
M  V30 45 H 13.217147 10.187961 -3.746147 0
M  V30 46 H 6.489962 5.956537 -12.411134 0
M  V30 47 H 6.634839 3.055359 -16.064718 0
M  V30 48 H 8.114979 2.229756 -16.433652 0
M  V30 49 H 7.008903 5.769301 -10.103209 0
M  V30 50 H 7.091410 4.166841 -10.676041 0
M  V30 END ATOM
M  V30 BEGIN BOND
M  V30 1 1 6 5
M  V30 2 1 8 1
M  V30 3 1 8 2
M  V30 4 1 9 3
M  V30 5 2 9 7
M  V30 6 1 11 2
M  V30 7 1 11 3
M  V30 8 1 12 7
M  V30 9 1 12 10
M  V30 10 1 13 1
M  V30 11 1 14 6
M  V30 12 2 16 3
M  V30 13 1 17 15
M  V30 14 1 18 8
M  V30 15 1 19 14
M  V30 16 1 19 15
M  V30 17 2 20 2
M  V30 18 1 20 16
M  V30 19 1 21 4
M  V30 20 2 21 12
M  V30 21 1 22 9
M  V30 22 1 23 21
M  V30 23 2 23 22
M  V30 24 1 24 13
M  V30 25 1 24 14
M  V30 26 1 25 5
M  V30 27 1 25 15
M  V30 28 1 26 18
M  V30 29 1 26 24
M  V30 30 1 27 6
M  V30 31 1 28 1
M  V30 32 1 29 1
M  V30 33 1 30 4
M  V30 34 1 31 5
M  V30 35 1 32 5
M  V30 36 1 6 33 CFG=1
M  V30 37 1 34 7
M  V30 38 1 35 10
M  V30 39 1 36 13
M  V30 40 1 37 13
M  V30 41 1 14 38 CFG=1
M  V30 42 1 15 39 CFG=1
M  V30 43 1 40 18
M  V30 44 1 41 18
M  V30 45 1 42 19
M  V30 46 1 43 19
M  V30 47 1 44 22
M  V30 48 1 45 23
M  V30 49 1 46 24
M  V30 50 1 47 25
M  V30 51 1 48 25
M  V30 52 1 49 26
M  V30 53 1 50 26
M  V30 END BOND
M  V30 END CTAB
M  END
>  <i_epik_Tot_Q>  (1) 
0

>  <i_epik_Tot_abs_Q>  (1) 
0

>  <i_i_glide_confnum>  (1) 
17

>  <i_i_glide_lignum>  (1) 
57

>  <i_i_glide_posenum>  (1) 
160

>  <i_i_glide_rotatable_bonds>  (1) 
5

>  <i_lp_mmshare_version>  (1) 
72125

>  <i_m_source_file_index>  (1) 
32

>  <i_f3d_flags>  (1) 
0

>  <num_sample>  (1) 
100

>  <b_lp_Chiralities_Consistent>  (1) 
1

>  <r_epik_Charging_Adjusted_Penalty>  (1) 
0.030402742638392096

>  <r_epik_Ionization_Penalty>  (1) 
0.030794834145842404

>  <r_epik_Ionization_Penalty_Charging>  (1) 
0

>  <r_epik_Ionization_Penalty_Neutral>  (1) 
0.030794834145842404

>  <r_epik_State_Penalty>  (1) 
0.030402742638392096

>  <r_glide_ring_energy>  (1) 
1.8967887167309052

>  <r_i_docking_score>  (1) 
-6.6139498552305351

>  <r_i_glide_ecoul>  (1) 
-3.3544335303435298

>  <r_i_glide_eff_state_penalty>  (1) 
0.030402742638392096

>  <r_i_glide_einternal>  (1) 
6.4349744596697329

>  <r_i_glide_emodel>  (1) 
-52.307471083478845

>  <r_i_glide_emodel_strain>  (1) 
0

>  <r_i_glide_energy>  (1) 
-45.247024530547591

>  <r_i_glide_erotb>  (1) 
0.32471647886420552

>  <r_i_glide_esite>  (1) 
-0.070136980641098842

>  <r_i_glide_evdw>  (1) 
-41.892591000204064

>  <r_i_glide_gscore>  (1) 
-6.6443525978689273

>  <r_i_glide_gscore_strain>  (1) 
0

>  <r_i_glide_hbond>  (1) 
-0.32000000000000001

>  <r_i_glide_ligand_efficiency>  (1) 
-0.24496110574927907

>  <r_i_glide_ligand_efficiency_ln>  (1) 
-1.5396184868124063

>  <r_i_glide_ligand_efficiency_sa>  (1) 
-0.7348833172478374

>  <r_i_glide_lipo>  (1) 
-2.7712854310838444

>  <r_i_glide_metal>  (1) 
-0

>  <r_i_glide_rewards>  (1) 
-1.2098520854464567

>  <r_lp_Energy>  (1) 
32.143867

>  <r_lp_tautomer_probability>  (1) 
0.99999999999977596

>  <s_epik_cmdline>  (1) 
J2VwaWtfcHl0aG9uJywgJy1waHQnLCAnMS4wJywgJy1waCcsICc3LjQnLCAnLXRuJywgJzgnLCAnLW1hJywgJzUwMCcsICctaW1hZScsICc8aW5maWxlLm1hZT4nLCAnLW9tYWUnLCAnPG91dGZpbGUubWFlPic=

>  <s_epik_input>  (1) 
Q2xbQ0BIXTFbQ0gyXVtDSDJdW0NASF0oQ2wpW0NIMl1bQ0BIXTFbQ0hdKFtDSDJdW0NIMl0yKVtDSDJdW0NIMl1OMmMzc2Mobm4zKS1jNFtjSF1jKFtPSF0pYyhbT0hdKVtjSF1bY0hdNA==

>  <s_glide_docking_method>  (1) 
confgen

>  <s_i_glide_gridfile>  (1) 
gpcr_drd2_6luq_protein_autoprepared_prepared

>  <s_lp_Force_Field>  (1) 
S-OPLS

>  <s_lp_Variant>  (1) 
DiffSBDD_31_num_sample_100-2

>  <s_m_source_file>  (1) 
generated__ligand_DiffSBDD_2026-05-06_prepared.sdf

>  <GenAI_Model>  (1) 
DiffSBDD

>  <Protein>  (1) 
generic_title2

$$$$
DiffSBDD_68_num_sample_100
     RDKit          3D

  0  0  0  0  0  0  0  0  0  0999 V3000
M  V30 BEGIN CTAB
M  V30 COUNTS 88 93 0 0 1
M  V30 BEGIN ATOM
M  V30 1 C 8.577949 5.369292 -16.869542 0
M  V30 2 C 6.347118 3.661802 -13.482487 0
M  V30 3 C 11.003647 7.679238 -5.679764 0
M  V30 4 C 9.136842 6.450278 -10.863244 0
M  V30 5 C 5.838129 -0.246245 -20.534088 0
M  V30 6 C 8.329724 1.538948 -17.888612 0 CFG=1
M  V30 7 O 7.353312 4.282124 -18.630200 0
M  V30 8 C 7.705782 1.355509 -14.866505 0
M  V30 9 O 5.434831 0.969242 -21.118872 0
M  V30 10 C 7.334282 4.824537 -10.155589 0
M  V30 11 C 8.704482 0.323748 -17.006480 0
M  V30 12 C 11.560654 8.757751 -6.473352 0
M  V30 13 C 10.772827 6.242789 -7.670721 0 CFG=2
M  V30 14 C 7.090069 1.236260 -18.809431 0 CFG=2
M  V30 15 C 8.396141 4.709145 -14.517840 0 CFG=1
M  V30 16 C 11.305783 7.287105 -8.605544 0 CFG=2
M  V30 17 O 4.837647 -0.803491 -19.714416 0
M  V30 18 C 11.890229 8.510736 -7.951578 0
M  V30 19 C 7.836229 -3.515875 -20.231665 0
M  V30 20 C 7.283190 2.600273 -15.664536 0 CFG=1
M  V30 21 C 7.221481 5.863352 -12.529296 0 CFG=2
M  V30 22 C 5.977340 4.998961 -12.832581 0
M  V30 23 O 5.924416 1.152516 -18.012332 0
M  V30 24 O 8.204941 -0.085726 -20.630415 0
M  V30 25 C 9.835350 6.990209 -8.563321 0 CFG=1
M  V30 26 C 7.980408 4.157025 -17.581756 0
M  V30 27 C 8.958515 -1.300475 -20.715674 0 CFG=1
M  V30 28 C 8.061912 6.042637 -13.799323 0
M  V30 29 C 7.829562 0.110614 -15.756394 0
M  V30 30 C 7.105445 3.894964 -14.805466 0 CFG=1
M  V30 31 C 8.092881 -2.498404 -21.069454 0
M  V30 32 O 9.991249 -1.224253 -21.687141 0
M  V30 33 C 10.655618 6.534535 -6.248720 0
M  V30 34 C 8.194845 2.779888 -16.921131 0 CFG=2
M  V30 35 C 9.555827 1.822020 -18.794373 0
M  V30 36 O 10.907949 -0.156765 -21.318115 0
M  V30 37 N 9.109973 6.169342 -9.453978 0
M  V30 38 S 11.834840 10.169301 -5.733811 0
M  V30 39 C 8.220685 5.303377 -9.058078 0
M  V30 40 O 9.216915 4.999137 -15.650791 0
M  V30 41 O 8.061070 4.951055 -7.891753 0
M  V30 42 C 8.122077 5.359404 -11.380473 0 CFG=1
M  V30 43 C 7.124769 -0.058528 -19.692076 0 CFG=2
M  V30 44 H 9.326540 5.809473 -17.528377 0
M  V30 45 H 7.810191 6.123015 -16.698939 0
M  V30 46 H 6.955126 3.076533 -12.791025 0
M  V30 47 H 5.437631 3.087344 -13.651130 0
M  V30 48 H 10.859971 7.812811 -4.622048 0
M  V30 49 H 10.133372 6.330168 -11.290462 0
M  V30 50 H 8.785805 7.468711 -11.039639 0
M  V30 51 H 5.996971 -0.949560 -21.349615 0
M  V30 52 H 6.976205 1.133299 -14.087520 0
M  V30 53 H 8.634851 1.547795 -14.344479 0
M  V30 54 H 4.720257 0.752910 -21.710316 0
M  V30 55 H 6.386543 5.348962 -10.029300 0
M  V30 56 H 7.141247 3.769310 -10.153033 0
M  V30 57 H 8.749840 -0.598951 -17.579737 0
M  V30 58 H 9.731584 0.475505 -16.691667 0
M  V30 59 H 11.018053 5.206365 -7.891608 0
M  V30 60 H 6.951674 2.073521 -19.488399 0
M  V30 61 H 9.034427 4.114948 -13.865566 0
M  V30 62 H 11.828449 6.969362 -9.503155 0
M  V30 63 H 4.776292 -0.240798 -18.952051 0
M  V30 64 H 11.585396 9.378352 -8.535042 0
M  V30 65 H 7.213301 -4.344147 -20.537306 0
M  V30 66 H 8.244868 -3.532203 -19.231881 0
M  V30 67 H 6.277857 2.371346 -15.996510 0
M  V30 68 H 6.848942 6.843131 -12.225222 0
M  V30 69 H 5.374706 4.826742 -11.941276 0
M  V30 70 H 5.324186 5.551983 -13.510469 0
M  V30 71 H 6.134587 0.639898 -17.246162 0
M  V30 72 H 9.228239 7.769434 -8.102580 0
M  V30 73 H 9.422036 -1.470341 -19.742823 0
M  V30 74 H 8.981003 6.543279 -13.495092 0
M  V30 75 H 7.546069 6.716890 -14.482012 0
M  V30 76 H 6.838815 -0.240646 -16.040637 0
M  V30 77 H 8.257007 -0.693770 -15.159414 0
M  V30 78 H 6.452077 4.550594 -15.383299 0
M  V30 79 H 7.669514 -2.508237 -22.063638 0
M  V30 80 H 10.231684 5.769283 -5.633741 0
M  V30 81 H 9.194256 2.858881 -16.496857 0
M  V30 82 H 10.382004 2.267776 -18.239472 0
M  V30 83 H 9.952080 0.907082 -19.222853 0
M  V30 84 H 9.315017 2.495816 -19.617354 0
M  V30 85 H 11.549268 -0.634871 -20.816073 0
M  V30 86 H 12.975819 8.447683 -8.040197 0
M  V30 87 H 8.712671 4.512871 -11.730963 0
M  V30 88 H 7.206797 -0.922666 -19.031653 0
M  V30 END ATOM
M  V30 BEGIN BOND
M  V30 1 1 9 5
M  V30 2 1 11 6
M  V30 3 1 12 3
M  V30 4 1 14 6
M  V30 5 1 16 13
M  V30 6 1 17 5
M  V30 7 1 18 12
M  V30 8 1 18 16
M  V30 9 1 20 8
M  V30 10 1 22 2
M  V30 11 1 22 21
M  V30 12 1 23 14
M  V30 13 1 25 13
M  V30 14 1 25 16
M  V30 15 1 26 1
M  V30 16 2 26 7
M  V30 17 1 27 24
M  V30 18 1 28 15
M  V30 19 1 28 21
M  V30 20 1 29 8
M  V30 21 1 29 11
M  V30 22 1 30 2
M  V30 23 1 30 15
M  V30 24 1 30 20
M  V30 25 2 31 19
M  V30 26 1 31 27
M  V30 27 1 32 27
M  V30 28 2 33 3
M  V30 29 1 33 13
M  V30 30 1 34 6
M  V30 31 1 34 20
M  V30 32 1 34 26
M  V30 33 1 6 35 CFG=3
M  V30 34 1 36 32
M  V30 35 1 37 4
M  V30 36 1 37 25
M  V30 37 2 38 12
M  V30 38 1 39 10
M  V30 39 1 39 37
M  V30 40 1 40 1
M  V30 41 1 40 15
M  V30 42 2 41 39
M  V30 43 1 42 4
M  V30 44 1 42 10
M  V30 45 1 42 21
M  V30 46 1 43 5
M  V30 47 1 43 14
M  V30 48 1 43 24
M  V30 49 1 44 1
M  V30 50 1 45 1
M  V30 51 1 46 2
M  V30 52 1 47 2
M  V30 53 1 48 3
M  V30 54 1 49 4
M  V30 55 1 50 4
M  V30 56 1 51 5
M  V30 57 1 52 8
M  V30 58 1 53 8
M  V30 59 1 54 9
M  V30 60 1 55 10
M  V30 61 1 56 10
M  V30 62 1 57 11
M  V30 63 1 58 11
M  V30 64 1 13 59 CFG=1
M  V30 65 1 14 60 CFG=3
M  V30 66 1 15 61 CFG=1
M  V30 67 1 16 62 CFG=3
M  V30 68 1 63 17
M  V30 69 1 64 18
M  V30 70 1 65 19
M  V30 71 1 66 19
M  V30 72 1 20 67 CFG=3
M  V30 73 1 21 68 CFG=1
M  V30 74 1 69 22
M  V30 75 1 70 22
M  V30 76 1 71 23
M  V30 77 1 25 72 CFG=1
M  V30 78 1 27 73 CFG=1
M  V30 79 1 74 28
M  V30 80 1 75 28
M  V30 81 1 76 29
M  V30 82 1 77 29
M  V30 83 1 30 78 CFG=3
M  V30 84 1 79 31
M  V30 85 1 80 33
M  V30 86 1 34 81 CFG=1
M  V30 87 1 82 35
M  V30 88 1 83 35
M  V30 89 1 84 35
M  V30 90 1 85 36
M  V30 91 1 86 18
M  V30 92 1 42 87 CFG=3
M  V30 93 1 43 88 CFG=1
M  V30 END BOND
M  V30 END CTAB
M  END
>  <i_epik_Tot_Q>  (1) 
0

>  <i_epik_Tot_abs_Q>  (1) 
0

>  <i_i_glide_confnum>  (1) 
293

>  <i_i_glide_lignum>  (1) 
138

>  <i_i_glide_posenum>  (1) 
327

>  <i_i_glide_rotatable_bonds>  (1) 
13

>  <i_lp_mmshare_version>  (1) 
72125

>  <i_m_source_file_index>  (1) 
69

>  <i_f3d_flags>  (1) 
0

>  <num_sample>  (1) 
100

>  <b_lp_Chiralities_Consistent>  (1) 
1

>  <r_epik_Charging_Adjusted_Penalty>  (1) 
0

>  <r_epik_Ionization_Penalty>  (1) 
0.00032218278010154739

>  <r_epik_Ionization_Penalty_Charging>  (1) 
0

>  <r_epik_Ionization_Penalty_Neutral>  (1) 
0.00032218278010154739

>  <r_epik_State_Penalty>  (1) 
-0

>  <r_glide_ring_energy>  (1) 
0

>  <r_i_docking_score>  (1) 
-6.609343014238652

>  <r_i_glide_ecoul>  (1) 
-5.345164413075393

>  <r_i_glide_eff_state_penalty>  (1) 
-0

>  <r_i_glide_einternal>  (1) 
7.3194122325946367

>  <r_i_glide_emodel>  (1) 
-56.589131795997417

>  <r_i_glide_emodel_strain>  (1) 
0.66648888263701167

>  <r_i_glide_energy>  (1) 
-44.168222830670054

>  <r_i_glide_erotb>  (1) 
0.36271052330308029

>  <r_i_glide_esite>  (1) 
-0.21144444781703903

>  <r_i_glide_evdw>  (1) 
-38.823058417594659

>  <r_i_glide_gscore>  (1) 
-6.609343014238652

>  <r_i_glide_gscore_strain>  (1) 
0

>  <r_i_glide_hbond>  (1) 
-0.32000000000000001

>  <r_i_glide_ligand_efficiency>  (1) 
-0.15370565149392215

>  <r_i_glide_ligand_efficiency_ln>  (1) 
-1.388167448046

>  <r_i_glide_ligand_efficiency_sa>  (1) 
-0.53849208131428472

>  <r_i_glide_lipo>  (1) 
-1.9597601867510253

>  <r_i_glide_metal>  (1) 
-0

>  <r_i_glide_rewards>  (1) 
-1.7379213201326262

>  <r_lp_Energy>  (1) 
42.877758

>  <r_lp_tautomer_probability>  (1) 
1

>  <s_epik_Chemistry_Notes>  (1) 
This compound contains an acetal/aminal-like group ( X-CH(R)-Y where X, Y are N, S, or O) that may be acid/base labile, releasing an aldehyde.

>  <s_epik_cmdline>  (1) 
J2VwaWtfcHl0aG9uJywgJy1waHQnLCAnMS4wJywgJy1waCcsICc3LjQnLCAnLXRuJywgJzgnLCAnLW1hJywgJzUwMCcsICctaW1hZScsICc8aW5maWxlLm1hZT4nLCAnLW9tYWUnLCAnPG91dGZpbGUubWFlPic=

>  <s_epik_input>  (1) 
W0NIMl09W0NIXVtDQEBIXShPW09IXSlPW0NASF0oW0NIXShbT0hdKVtPSF0pW0NAQEhdKFtPSF0pW0NAXShbQ0gzXSkoW0NIMl1bQ0gyXVtDSDJdMSlbQ0BASF0oQyg9TylbQ0gyXU8yKVtDQEBIXTFbQ0BASF0oW0NAQEhdMjMpW0NIMl1bQ0gyXVtDQEhdKFtDSDJdMylbQ0BIXShbQ0gyXUM0PU8pW0NIMl1ONFtDQEBIXTVbQ0BIXShbQ0BIXTU2KVtDSF09QyhbU0hdKVtDSF09W0NIXTY=

>  <s_glide_docking_method>  (1) 
confgen

>  <s_i_glide_gridfile>  (1) 
gpcr_drd2_6luq_protein_autoprepared_prepared

>  <s_lp_Force_Field>  (1) 
S-OPLS

>  <s_lp_Variant>  (1) 
DiffSBDD_68_num_sample_100-2

>  <s_m_source_file>  (1) 
generated__ligand_DiffSBDD_2026-05-06_prepared.sdf

>  <GenAI_Model>  (1) 
DiffSBDD

>  <Protein>  (1) 
generic_title2

$$$$
DiffSBDD_23_num_sample_100
     RDKit          3D

  0  0  0  0  0  0  0  0  0  0999 V3000
M  V30 BEGIN CTAB
M  V30 COUNTS 71 73 0 0 1
M  V30 BEGIN ATOM
M  V30 1 C 10.635457 7.233322 -6.640217 0 CFG=1
M  V30 2 C 8.931605 5.507368 -9.738271 0
M  V30 3 O 5.641526 6.051206 -14.496857 0
M  V30 4 C 6.579937 3.646000 -13.450383 0
M  V30 5 N 6.941319 4.191528 -14.782063 0
M  V30 6 O 9.834822 5.173138 -15.064864 0
M  V30 7 C 8.500930 4.232294 -11.797573 0
M  V30 8 C 6.384226 5.376668 -15.214724 0
M  V30 9 C 4.713934 6.851445 -17.523345 0
M  V30 10 C 11.433366 8.853227 -9.503719 0
M  V30 11 N 6.708494 5.768731 -16.503029 0
M  V30 12 C 9.723942 4.945058 -16.283609 0
M  V30 13 C 7.818403 3.341549 -15.599166 0 CFG=1
M  V30 14 O 10.484244 5.369248 -17.180737 0 CHG=-1
M  V30 15 C 10.138027 7.527548 -11.465451 0
M  V30 16 C 11.488702 9.056372 -5.047915 0 CFG=1
M  V30 17 O 11.034839 10.205492 -4.380391 0
M  V30 18 C 10.921020 6.169302 -5.562948 0
M  V30 19 O 7.126577 2.207969 -16.100685 0
M  V30 20 O 8.223307 4.752116 -9.074520 0
M  V30 21 N 12.864423 8.569305 -1.776265 0
M  V30 22 N 9.054977 5.388599 -11.102594 0
M  V30 23 C 6.168184 7.019655 -17.054483 0
M  V30 24 S 9.839127 8.147472 -9.870987 0 CHG=1
M  V30 25 C 12.425756 8.338998 -2.819870 0
M  V30 26 C 9.435910 6.795606 -7.527293 0
M  V30 27 C 8.544422 4.068368 -16.727703 0 CFG=1
M  V30 28 C 7.498416 4.927281 -17.410490 0 CFG=1
M  V30 29 C 11.834846 7.958487 -4.058043 0
M  V30 30 C 7.043679 4.476686 -12.226889 0
M  V30 31 C 7.078891 3.840609 -19.481688 0
M  V30 32 C 11.579302 6.668835 -4.300558 0
M  V30 33 C 10.379803 8.613429 -6.018930 0
M  V30 34 C 9.777317 6.586417 -9.019127 0 CFG=1
M  V30 35 C 9.740345 6.328335 -11.884905 0
M  V30 36 C 12.585087 8.174409 -9.632994 0
M  V30 37 O 6.634838 4.132049 -18.164482 0
M  V30 38 H 11.542192 7.314933 -7.236137 0
M  V30 39 H 6.927537 2.617662 -13.342866 0
M  V30 40 H 5.491092 3.572379 -13.422447 0
M  V30 41 H 9.103993 4.011665 -12.679754 0
M  V30 42 H 8.633991 3.369301 -11.165361 0
M  V30 43 H 4.328528 7.781211 -17.939145 0
M  V30 44 H 4.639800 6.089648 -18.299646 0
M  V30 45 H 4.056756 6.560672 -16.704227 0
M  V30 46 H 11.434841 9.877299 -9.164431 0
M  V30 47 H 8.568959 2.932004 -14.926447 0
M  V30 48 H 10.634837 8.169301 -12.131981 0
M  V30 49 H 12.392582 9.309342 -5.604412 0
M  V30 50 H 10.953108 10.910875 -5.004932 0
M  V30 51 H 11.520038 5.369300 -5.993453 0
M  V30 52 H 9.977669 5.769304 -5.205192 0
M  V30 53 H 7.738428 1.494407 -16.196311 0
M  V30 54 H 6.232001 7.814918 -16.308349 0
M  V30 55 H 6.769423 7.363491 -17.894669 0
M  V30 56 H 8.993044 5.893535 -7.107195 0
M  V30 57 H 8.634843 7.530049 -7.458166 0
M  V30 58 H 8.955298 3.350486 -17.437052 0
M  V30 59 H 7.999955 5.615595 -18.095184 0
M  V30 60 H 6.400579 4.242302 -11.377339 0
M  V30 61 H 6.888755 5.539636 -12.409597 0
M  V30 62 H 6.341185 3.213644 -19.982419 0
M  V30 63 H 7.195305 4.751796 -20.070496 0
M  V30 64 H 8.026799 3.302606 -19.483228 0
M  V30 65 H 11.831970 5.923978 -3.559474 0
M  V30 66 H 9.434841 8.549091 -5.491687 0
M  V30 67 H 10.241440 9.365864 -6.793924 0
M  V30 68 H 10.779084 6.169257 -9.057672 0
M  V30 69 H 9.906178 5.997622 -12.893766 0
M  V30 70 H 13.532245 8.638232 -9.400330 0
M  V30 71 H 12.594598 7.151566 -9.971109 0
M  V30 END ATOM
M  V30 BEGIN BOND
M  V30 1 1 5 4
M  V30 2 2 8 3
M  V30 3 1 8 5
M  V30 4 1 11 8
M  V30 5 2 12 6
M  V30 6 1 13 5
M  V30 7 1 14 12
M  V30 8 1 17 16
M  V30 9 1 18 1
M  V30 10 1 19 13
M  V30 11 2 20 2
M  V30 12 1 22 2
M  V30 13 1 22 7
M  V30 14 1 23 9
M  V30 15 1 23 11
M  V30 16 1 24 10 CFG=1
M  V30 17 1 24 15
M  V30 18 3 25 21
M  V30 19 1 26 1
M  V30 20 1 27 12
M  V30 21 1 27 13
M  V30 22 1 28 11
M  V30 23 1 28 27
M  V30 24 1 29 16
M  V30 25 1 29 25
M  V30 26 1 30 4
M  V30 27 1 30 7
M  V30 28 1 32 18
M  V30 29 2 32 29
M  V30 30 1 33 1
M  V30 31 1 33 16
M  V30 32 1 34 2
M  V30 33 1 34 24
M  V30 34 1 34 26
M  V30 35 2 35 15
M  V30 36 1 35 22
M  V30 37 2 36 10
M  V30 38 1 37 28
M  V30 39 1 37 31
M  V30 40 1 1 38 CFG=3
M  V30 41 1 39 4
M  V30 42 1 40 4
M  V30 43 1 41 7
M  V30 44 1 42 7
M  V30 45 1 43 9
M  V30 46 1 44 9
M  V30 47 1 45 9
M  V30 48 1 46 10
M  V30 49 1 13 47 CFG=1
M  V30 50 1 48 15
M  V30 51 1 16 49 CFG=3
M  V30 52 1 50 17
M  V30 53 1 51 18
M  V30 54 1 52 18
M  V30 55 1 53 19
M  V30 56 1 54 23
M  V30 57 1 55 23
M  V30 58 1 56 26
M  V30 59 1 57 26
M  V30 60 1 27 58 CFG=3
M  V30 61 1 28 59 CFG=3
M  V30 62 1 60 30
M  V30 63 1 61 30
M  V30 64 1 62 31
M  V30 65 1 63 31
M  V30 66 1 64 31
M  V30 67 1 65 32
M  V30 68 1 66 33
M  V30 69 1 67 33
M  V30 70 1 34 68 CFG=1
M  V30 71 1 69 35
M  V30 72 1 70 36
M  V30 73 1 71 36
M  V30 END BOND
M  V30 END CTAB
M  END
>  <i_epik_Tot_Q>  (1) 
0

>  <i_epik_Tot_abs_Q>  (1) 
2

>  <i_i_glide_confnum>  (1) 
908

>  <i_i_glide_lignum>  (1) 
37

>  <i_i_glide_posenum>  (1) 
3

>  <i_i_glide_rotatable_bonds>  (1) 
12

>  <i_lp_mmshare_version>  (1) 
72125

>  <i_m_source_file_index>  (1) 
24

>  <i_f3d_flags>  (1) 
0

>  <num_sample>  (1) 
100

>  <b_lp_Chiralities_Consistent>  (1) 
1

>  <r_epik_Charging_Adjusted_Penalty>  (1) 
5.7553869782388246e-05

>  <r_epik_Ionization_Penalty>  (1) 
0.00064862511437644094

>  <r_epik_Ionization_Penalty_Charging>  (1) 
5.7553869782388246e-05

>  <r_epik_Ionization_Penalty_Neutral>  (1) 
0.00059107124459405267

>  <r_epik_State_Penalty>  (1) 
-0

>  <r_glide_ring_energy>  (1) 
0.11565553091839288

>  <r_i_docking_score>  (1) 
-6.6043878310458588

>  <r_i_glide_ecoul>  (1) 
0.047395905424453488

>  <r_i_glide_eff_state_penalty>  (1) 
-0

>  <r_i_glide_einternal>  (1) 
16.035796166794889

>  <r_i_glide_emodel>  (1) 
-46.003572111526964

>  <r_i_glide_emodel_strain>  (1) 
2.0369552999040934

>  <r_i_glide_energy>  (1) 
-39.686011987166857

>  <r_i_glide_erotb>  (1) 
0.50545294074296965

>  <r_i_glide_esite>  (1) 
-0.15853110771210871

>  <r_i_glide_evdw>  (1) 
-39.733407892591309

>  <r_i_glide_gscore>  (1) 
-6.6043878310458588

>  <r_i_glide_gscore_strain>  (1) 
0

>  <r_i_glide_hbond>  (1) 
0

>  <r_i_glide_ligand_efficiency>  (1) 
-0.17849696840664483

>  <r_i_glide_ligand_efficiency_ln>  (1) 
-1.4323368917358235

>  <r_i_glide_ligand_efficiency_sa>  (1) 
-0.59479149857717939

>  <r_i_glide_lipo>  (1) 
-2.7445328726221687

>  <r_i_glide_metal>  (1) 
-0

>  <r_i_glide_rewards>  (1) 
-2.2272157826386532

>  <r_lp_Energy>  (1) 
40.759158999999997

>  <r_lp_tautomer_probability>  (1) 
1

>  <s_epik_Chemistry_Notes>  (1) 
This compound contains an acetal/aminal-like group ( X-CH(R)-Y where X, Y are N, S, or O) that may be acid/base labile, releasing an aldehyde.

>  <s_epik_cmdline>  (1) 
J2VwaWtfcHl0aG9uJywgJy1waHQnLCAnMS4wJywgJy1waCcsICc3LjQnLCAnLXRuJywgJzgnLCAnLW1hJywgJzUwMCcsICctaW1hZScsICc8aW5maWxlLm1hZT4nLCAnLW9tYWUnLCAnPG91dGZpbGUubWFlPic=

>  <s_epik_input>  (1) 
W09IXVtDQEhdKFtDSDJdMSlDKEMjTik9W0NIXVtDSDJdW0NASF0xW0NIMl1bQ0BASF0yW1MrXShbQ0hdPVtDSDJdKVtDSF09W0NIXU4oQzI9TylbQ0gyXVtDSDJdW0NIMl1OM0MoPU8pTihbQ0gyXVtDSDNdKVtDQEhdKE9bQ0gzXSlbQ0BASF0oQyg9TylbT0hdKVtDQEBIXTNbT0hd

>  <s_glide_docking_method>  (1) 
confgen

>  <s_i_glide_gridfile>  (1) 
gpcr_drd2_6luq_protein_autoprepared_prepared

>  <s_lp_Force_Field>  (1) 
S-OPLS

>  <s_lp_Variant>  (1) 
DiffSBDD_23_num_sample_100-1

>  <s_m_source_file>  (1) 
generated__ligand_DiffSBDD_2026-05-06_prepared.sdf

>  <GenAI_Model>  (1) 
DiffSBDD

>  <Protein>  (1) 
generic_title2

$$$$
DiffSBDD_16_num_sample_100
     RDKit          3D

  0  0  0  0  0  0  0  0  0  0999 V3000
M  V30 BEGIN CTAB
M  V30 COUNTS 54 57 0 0 1
M  V30 BEGIN ATOM
M  V30 1 C 6.758221 5.349256 -14.713042 0
M  V30 2 C 5.434845 7.673674 -11.799190 0
M  V30 3 C 10.641149 6.654768 -6.180605 0
M  V30 4 C 10.654472 6.667748 -7.586571 0
M  V30 5 C 9.514825 7.422984 -11.806153 0
M  V30 6 C 5.720156 7.763456 -15.882708 0 CFG=1
M  V30 7 C 6.225096 6.518840 -12.406777 0 CFG=1
M  V30 8 C 11.038768 7.796334 -5.463112 0
M  V30 9 C 11.475132 8.963542 -7.556148 0
M  V30 10 C 11.073164 7.825013 -8.276573 0
M  V30 11 C 9.471320 4.891672 -11.377332 0
M  V30 12 C 11.450483 8.952817 -6.149963 0
M  V30 13 C 5.425030 6.358011 -16.424220 0 CFG=1
M  V30 14 C 11.080370 7.845394 -9.791310 0
M  V30 15 C 9.648072 7.875175 -10.339717 0
M  V30 16 N 11.834846 10.083955 -5.438583 0
M  V30 17 C 6.375162 5.182325 -11.697146 0
M  V30 18 C 8.744932 6.096297 -11.996012 0 CFG=1
M  V30 19 C 5.003999 7.545603 -17.199938 0
M  V30 20 O 5.434840 7.369309 -14.544428 0
M  V30 21 C 6.541515 6.688659 -13.918190 0 CFG=2
M  V30 22 C 6.685698 5.566813 -16.238249 0
M  V30 23 N 7.346997 6.239473 -11.491666 0 CFG=1 CHG=1
M  V30 24 H 7.687555 4.839327 -14.470413 0
M  V30 25 H 5.962831 4.653013 -14.442072 0
M  V30 26 H 4.634845 8.024269 -12.442960 0
M  V30 27 H 4.981317 7.367323 -10.855728 0
M  V30 28 H 6.090246 8.521436 -11.595111 0
M  V30 29 H 10.324576 5.769288 -5.651496 0
M  V30 30 H 10.344601 5.791107 -8.136186 0
M  V30 31 H 8.999539 8.209054 -12.360107 0
M  V30 32 H 10.499257 7.346333 -12.269640 0
M  V30 33 H 6.698309 8.224907 -15.969384 0
M  V30 34 H 11.034839 7.783090 -4.384006 0
M  V30 35 H 11.799716 9.843852 -8.083613 0
M  V30 36 H 10.422779 4.741209 -11.891619 0
M  V30 37 H 9.662127 5.019503 -10.312267 0
M  V30 38 H 8.913422 3.963491 -11.499282 0
M  V30 39 H 4.556602 5.816369 -16.054742 0
M  V30 40 H 11.640321 8.706211 -10.158500 0
M  V30 41 H 11.616616 6.969303 -10.142204 0
M  V30 42 H 9.034831 7.231092 -9.712965 0
M  V30 43 H 9.225390 8.872380 -10.207536 0
M  V30 44 H 11.751506 10.122142 -4.432944 0
M  V30 45 H 12.055488 10.949035 -5.909989 0
M  V30 46 H 6.802302 4.323874 -12.208835 0
M  V30 47 H 5.843065 4.994929 -10.766101 0
M  V30 48 H 8.772723 5.897905 -13.058062 0
M  V30 49 H 3.939238 7.769356 -17.230869 0
M  V30 50 H 5.546831 7.769271 -18.115352 0
M  V30 51 H 7.409520 7.341776 -14.019326 0
M  V30 52 H 6.634839 4.622833 -16.780405 0
M  V30 53 H 7.549041 6.117324 -16.612131 0
M  V30 54 H 7.233870 6.738944 -10.601499 0
M  V30 END ATOM
M  V30 BEGIN BOND
M  V30 1 1 4 3
M  V30 2 1 7 2 CFG=1
M  V30 3 2 8 3
M  V30 4 2 10 4
M  V30 5 1 10 9
M  V30 6 1 12 8
M  V30 7 2 12 9
M  V30 8 1 13 6
M  V30 9 1 14 10
M  V30 10 1 15 5
M  V30 11 1 15 14
M  V30 12 1 16 12
M  V30 13 1 17 7
M  V30 14 1 18 5
M  V30 15 1 18 11
M  V30 16 1 19 6
M  V30 17 1 19 13
M  V30 18 1 20 6
M  V30 19 1 21 1
M  V30 20 1 21 7
M  V30 21 1 21 20
M  V30 22 1 22 1
M  V30 23 1 22 13
M  V30 24 1 23 7
M  V30 25 1 23 17
M  V30 26 1 23 18
M  V30 27 1 24 1
M  V30 28 1 25 1
M  V30 29 1 26 2
M  V30 30 1 27 2
M  V30 31 1 28 2
M  V30 32 1 29 3
M  V30 33 1 30 4
M  V30 34 1 31 5
M  V30 35 1 32 5
M  V30 36 1 6 33 CFG=1
M  V30 37 1 34 8
M  V30 38 1 35 9
M  V30 39 1 36 11
M  V30 40 1 37 11
M  V30 41 1 38 11
M  V30 42 1 13 39 CFG=1
M  V30 43 1 40 14
M  V30 44 1 41 14
M  V30 45 1 42 15
M  V30 46 1 43 15
M  V30 47 1 44 16
M  V30 48 1 45 16
M  V30 49 1 46 17
M  V30 50 1 47 17
M  V30 51 1 18 48 CFG=3
M  V30 52 1 49 19
M  V30 53 1 50 19
M  V30 54 1 21 51 CFG=1
M  V30 55 1 52 22
M  V30 56 1 53 22
M  V30 57 1 23 54 CFG=1
M  V30 END BOND
M  V30 END CTAB
M  END
>  <i_epik_Tot_Q>  (1) 
1

>  <i_epik_Tot_abs_Q>  (1) 
1

>  <i_i_glide_confnum>  (1) 
107

>  <i_i_glide_lignum>  (1) 
26

>  <i_i_glide_posenum>  (1) 
259

>  <i_i_glide_rotatable_bonds>  (1) 
6

>  <i_lp_mmshare_version>  (1) 
72125

>  <i_m_source_file_index>  (1) 
17

>  <i_f3d_flags>  (1) 
0

>  <num_sample>  (1) 
100

>  <b_lp_Chiralities_Consistent>  (1) 
1

>  <r_epik_Charging_Adjusted_Penalty>  (1) 
0.11272327168216571

>  <r_epik_Ionization_Penalty>  (1) 
0.057493963086777844

>  <r_epik_Ionization_Penalty_Charging>  (1) 
0.056361635841082856

>  <r_epik_Ionization_Penalty_Neutral>  (1) 
0.0011323272456949893

>  <r_epik_State_Penalty>  (1) 
0.056361635841082856

>  <r_glide_ring_energy>  (1) 
0

>  <r_i_docking_score>  (1) 
-6.5900992628221369

>  <r_i_glide_ecoul>  (1) 
-6.4823671952050042

>  <r_i_glide_eff_state_penalty>  (1) 
0.056361635841082856

>  <r_i_glide_einternal>  (1) 
9.4886815118662309

>  <r_i_glide_emodel>  (1) 
-48.571100889000419

>  <r_i_glide_emodel_strain>  (1) 
1.0331719441460478

>  <r_i_glide_energy>  (1) 
-39.052485699426086

>  <r_i_glide_erotb>  (1) 
1.1214719841998091

>  <r_i_glide_esite>  (1) 
-0.10000000000000001

>  <r_i_glide_evdw>  (1) 
-32.570118504221078

>  <r_i_glide_gscore>  (1) 
-6.6464608986632197

>  <r_i_glide_gscore_strain>  (1) 
0

>  <r_i_glide_hbond>  (1) 
-0.20000000000000001

>  <r_i_glide_ligand_efficiency>  (1) 
-0.2865260549053103

>  <r_i_glide_ligand_efficiency_ln>  (1) 
-1.5935457574667395

>  <r_i_glide_ligand_efficiency_sa>  (1) 
-0.81484198641234862

>  <r_i_glide_lipo>  (1) 
-2.7090005374621331

>  <r_i_glide_metal>  (1) 
-0

>  <r_i_glide_rewards>  (1) 
-2.1580713409090908

>  <r_lp_Energy>  (1) 
57.573436999999998

>  <s_epik_cmdline>  (1) 
J2VwaWtfcHl0aG9uJywgJy1waHQnLCAnMS4wJywgJy1waCcsICc3LjQnLCAnLXRuJywgJzgnLCAnLW1hJywgJzUwMCcsICctaW1hZScsICc8aW5maWxlLm1hZT4nLCAnLW9tYWUnLCAnPG91dGZpbGUubWFlPic=

>  <s_epik_input>  (1) 
W0NIXTEyW0NIXShbQ0gyXTEpW0NIMl1bQ0gyXVtDQEBIXShPMilbQ0BAXTMoW0NIM10pW0NIMl1OM1tDQEhdKFtDSDNdKVtDSDJdW0NIMl1bQ0gyXWM0W2NIXVtjSF1bY0hdYyhbY0hdNClbTkgyXQ==

>  <s_glide_docking_method>  (1) 
confgen

>  <s_i_glide_gridfile>  (1) 
gpcr_drd2_6luq_protein_autoprepared_prepared

>  <s_lp_Force_Field>  (1) 
S-OPLS

>  <s_lp_Variant>  (1) 
DiffSBDD_16_num_sample_100-1

>  <s_m_source_file>  (1) 
generated__ligand_DiffSBDD_2026-05-06_prepared.sdf

>  <GenAI_Model>  (1) 
DiffSBDD

>  <Protein>  (1) 
generic_title2

$$$$
DiffSBDD_72_num_sample_100
     RDKit          3D

  0  0  0  0  0  0  0  0  0  0999 V3000
M  V30 BEGIN CTAB
M  V30 COUNTS 32 34 0 0 1
M  V30 BEGIN ATOM
M  V30 1 C 12.013246 6.838333 -3.176109 0
M  V30 2 C 9.772777 6.535567 -8.309718 0
M  V30 3 C 11.722029 9.254506 -4.595751 0
M  V30 4 C 11.434839 6.831861 -4.462439 0
M  V30 5 C 10.655208 8.059626 -6.565553 0 CFG=1
M  V30 6 C 11.649946 8.529860 -7.669111 0
M  V30 7 N 10.007072 6.825211 -6.987348 0
M  V30 8 C 12.446403 8.049537 -2.606202 0
M  V30 9 C 8.957196 5.349236 -8.631082 0
M  V30 10 C 11.286386 8.045963 -5.176581 0
M  V30 11 F 13.006382 8.059547 -1.376416 0
M  V30 12 C 12.299579 9.250928 -3.313128 0
M  V30 13 C 11.056687 8.499823 -9.108771 0
M  V30 14 C 9.009650 5.524284 -10.221244 0
M  V30 15 C 9.834834 6.825572 -10.658911 0
M  V30 16 C 10.209300 7.254905 -9.293487 0
M  V30 17 H 12.126153 5.912967 -2.629811 0
M  V30 18 H 11.610639 10.184578 -5.134131 0
M  V30 19 H 11.106100 5.899569 -4.896787 0
M  V30 20 H 9.852243 8.796917 -6.518322 0
M  V30 21 H 12.019516 9.529077 -7.446727 0
M  V30 22 H 12.519923 7.872106 -7.647168 0
M  V30 23 H 9.431417 4.428500 -8.291711 0
M  V30 24 H 12.632468 10.169301 -2.868421 0
M  V30 25 H 10.424496 9.369286 -9.285809 0
M  V30 26 H 11.858278 8.523612 -9.847454 0
M  V30 27 H 7.992894 5.591276 -10.610730 0
M  V30 28 H 9.449717 4.635264 -10.673977 0
M  V30 29 H 10.701157 6.596450 -11.277959 0
M  V30 30 H 9.207580 7.573761 -11.144992 0
M  V30 31 H 7.944881 5.435071 -8.232860 0
M  V30 32 H 9.593612 6.245447 -6.271116 0
M  V30 END ATOM
M  V30 BEGIN BOND
M  V30 1 2 4 1
M  V30 2 1 6 5
M  V30 3 1 7 2
M  V30 4 1 7 5
M  V30 5 1 8 1
M  V30 6 1 9 2
M  V30 7 2 10 3
M  V30 8 1 10 4
M  V30 9 1 10 5
M  V30 10 1 11 8
M  V30 11 1 12 3
M  V30 12 2 12 8
M  V30 13 1 13 6
M  V30 14 1 14 9
M  V30 15 1 15 14
M  V30 16 2 16 2
M  V30 17 1 16 13
M  V30 18 1 16 15
M  V30 19 1 17 1
M  V30 20 1 18 3
M  V30 21 1 19 4
M  V30 22 1 5 20 CFG=1
M  V30 23 1 21 6
M  V30 24 1 22 6
M  V30 25 1 23 9
M  V30 26 1 24 12
M  V30 27 1 25 13
M  V30 28 1 26 13
M  V30 29 1 27 14
M  V30 30 1 28 14
M  V30 31 1 29 15
M  V30 32 1 30 15
M  V30 33 1 31 9
M  V30 34 1 32 7
M  V30 END BOND
M  V30 END CTAB
M  END
>  <i_epik_Tot_Q>  (1) 
0

>  <i_epik_Tot_abs_Q>  (1) 
0

>  <i_i_glide_confnum>  (1) 
3

>  <i_i_glide_lignum>  (1) 
144

>  <i_i_glide_posenum>  (1) 
188

>  <i_i_glide_rotatable_bonds>  (1) 
1

>  <i_lp_mmshare_version>  (1) 
72125

>  <i_m_source_file_index>  (1) 
73

>  <i_f3d_flags>  (1) 
0

>  <num_sample>  (1) 
100

>  <b_lp_Chiralities_Consistent>  (1) 
1

>  <r_epik_Charging_Adjusted_Penalty>  (1) 
0.00012261153731157732

>  <r_epik_Ionization_Penalty>  (1) 
0.00096767274994002245

>  <r_epik_Ionization_Penalty_Charging>  (1) 
0.00012261153731157732

>  <r_epik_Ionization_Penalty_Neutral>  (1) 
0.00084506121262844516

>  <r_epik_State_Penalty>  (1) 
-0

>  <r_glide_ring_energy>  (1) 
0

>  <r_i_docking_score>  (1) 
-6.5847920617499049

>  <r_i_glide_ecoul>  (1) 
-0.58997299923238844

>  <r_i_glide_eff_state_penalty>  (1) 
-0

>  <r_i_glide_einternal>  (1) 
0.40225371695362921

>  <r_i_glide_emodel>  (1) 
-44.902361474452555

>  <r_i_glide_emodel_strain>  (1) 
0.13335446276504825

>  <r_i_glide_energy>  (1) 
-32.287661779179054

>  <r_i_glide_erotb>  (1) 
0.35536468767402363

>  <r_i_glide_esite>  (1) 
-0.00054518084127174187

>  <r_i_glide_evdw>  (1) 
-31.697688779946667

>  <r_i_glide_gscore>  (1) 
-6.5847920617499049

>  <r_i_glide_gscore_strain>  (1) 
0

>  <r_i_glide_hbond>  (1) 
0

>  <r_i_glide_ligand_efficiency>  (1) 
-0.41154950385936906

>  <r_i_glide_ligand_efficiency_ln>  (1) 
-1.745430670174013

>  <r_i_glide_ligand_efficiency_sa>  (1) 
-1.0370397659724209

>  <r_i_glide_lipo>  (1) 
-2.5004412782647467

>  <r_i_glide_metal>  (1) 
-0

>  <r_i_glide_rewards>  (1) 
-2.7657899014357183

>  <r_lp_Energy>  (1) 
12.197267

>  <r_lp_tautomer_probability>  (1) 
1

>  <s_epik_Chemistry_Notes>  (1) 
This compound has an imine and may undergo hydrolysis.

>  <s_epik_cmdline>  (1) 
J2VwaWtfcHl0aG9uJywgJy1waHQnLCAnMS4wJywgJy1waCcsICc3LjQnLCAnLXRuJywgJzgnLCAnLW1hJywgJzUwMCcsICctaW1hZScsICc8aW5maWxlLm1hZT4nLCAnLW9tYWUnLCAnPG91dGZpbGUubWFlPic=

>  <s_epik_input>  (1) 
RmMxW2NIXVtjSF1jKFtjSF1bY0hdMSlbQ0BIXShOMilbQ0gyXVtDSDJdW0NASF0oQz0yMylbQ0gyXVtDSDJdW0NIMl0z

>  <s_glide_docking_method>  (1) 
confgen

>  <s_i_glide_gridfile>  (1) 
gpcr_drd2_6luq_protein_autoprepared_prepared

>  <s_lp_Force_Field>  (1) 
S-OPLS

>  <s_lp_Variant>  (1) 
DiffSBDD_72_num_sample_100-1

>  <s_m_source_file>  (1) 
generated__ligand_DiffSBDD_2026-05-06_prepared.sdf

>  <GenAI_Model>  (1) 
DiffSBDD

>  <Protein>  (1) 
generic_title2

$$$$
DiffSBDD_29_num_sample_100
     RDKit          3D

  0  0  0  0  0  0  0  0  0  0999 V3000
M  V30 BEGIN CTAB
M  V30 COUNTS 73 77 0 0 1
M  V30 BEGIN ATOM
M  V30 1 F 11.434761 9.270018 -8.462042 0
M  V30 2 O 9.242298 3.379179 -12.691653 0
M  V30 3 N 5.938571 6.329240 -13.245418 0
M  V30 4 C 9.209499 3.593718 -16.723975 0
M  V30 5 N 11.248620 9.824314 -4.866794 0
M  V30 6 C 12.234868 9.095162 -2.722521 0
M  V30 7 C 8.756250 5.719787 -12.366568 0 CFG=1
M  V30 8 C 12.388692 6.669311 -2.406144 0
M  V30 9 C 11.688373 8.848063 -3.987058 0
M  V30 10 C 5.664044 6.007330 -11.908187 0
M  V30 11 C 7.319183 3.146574 -14.987927 0
M  V30 12 N 8.634935 6.169302 -9.964696 0
M  V30 13 C 9.140682 5.598027 -18.212563 0 CFG=2
M  V30 14 O 9.492734 6.096044 -19.485036 0
M  V30 15 O 7.834850 5.369269 -7.613605 0
M  V30 16 C 7.101806 6.071171 -15.458644 0
M  V30 17 C 7.106731 5.125607 -16.679662 0 CFG=2
M  V30 18 C 10.843052 9.145588 -6.168495 0 CFG=2
M  V30 19 C 10.611250 6.598250 -6.498350 0
M  V30 20 C 10.234727 6.141642 -12.245670 0
M  V30 21 C 6.514800 5.574461 -10.939683 0
M  V30 22 C 8.680822 4.519539 -13.318975 0 CFG=2
M  V30 23 N 10.052750 6.707837 -7.786552 0
M  V30 24 C 11.834837 6.479521 -3.698033 0
M  V30 25 C 10.973057 7.663343 -5.749142 0
M  V30 26 C 7.705376 3.717365 -16.388820 0 CFG=1
M  V30 27 C 12.596826 7.991468 -1.917596 0
M  V30 28 C 9.549227 4.127423 -18.115137 0
M  V30 29 F 11.834838 10.922467 -7.091646 0
M  V30 30 C 6.449720 5.375543 -14.243281 0 CFG=1
M  V30 31 C 7.627428 5.756343 -17.995248 0
M  V30 32 C 8.028081 5.382934 -11.038877 0 CFG=1
M  V30 33 C 7.271719 4.155780 -13.803141 0 CFG=1
M  V30 34 C 11.823652 9.598598 -7.230726 0
M  V30 35 C 11.509661 7.608949 -4.453493 0
M  V30 36 O 9.834845 4.268510 -8.691676 0
M  V30 37 S 9.034889 5.465027 -8.445144 0
M  V30 38 H 10.167837 3.536811 -12.567942 0
M  V30 39 H 9.834731 4.133542 -16.020302 0
M  V30 40 H 9.509581 2.545901 -16.672296 0
M  V30 41 H 11.697726 10.727789 -4.887182 0
M  V30 42 H 12.364447 10.105490 -2.364233 0
M  V30 43 H 8.308587 6.605860 -12.804715 0
M  V30 44 H 12.655375 5.815668 -1.799137 0
M  V30 45 H 4.634845 6.172365 -11.657367 0
M  V30 46 H 6.321175 2.720484 -15.073276 0
M  V30 47 H 7.949712 2.291004 -14.741506 0
M  V30 48 H 8.004154 6.985880 -9.800051 0
M  V30 49 H 9.688673 6.169206 -17.464667 0
M  V30 50 H 9.079153 5.562856 -20.146503 0
M  V30 51 H 8.108614 6.410449 -15.224202 0
M  V30 52 H 6.534176 6.967710 -15.713115 0
M  V30 53 H 6.052833 4.970201 -16.883707 0
M  V30 54 H 9.814037 9.369306 -6.434633 0
M  V30 55 H 10.711424 5.586351 -6.157493 0
M  V30 56 H 10.819839 5.304108 -11.891693 0
M  V30 57 H 10.388229 6.994610 -11.584495 0
M  V30 58 H 10.655112 6.418384 -13.210338 0
M  V30 59 H 9.302199 4.766202 -14.169591 0
M  V30 60 H 9.847721 7.648299 -8.121459 0
M  V30 61 H 11.677937 5.488030 -4.090145 0
M  V30 62 H 7.227566 3.048356 -17.108129 0
M  V30 63 H 13.020782 8.151106 -0.935796 0
M  V30 64 H 9.037367 3.533674 -18.873368 0
M  V30 65 H 10.620488 4.016551 -18.293832 0
M  V30 66 H 5.511702 4.961901 -14.615008 0
M  V30 67 H 7.347508 6.808575 -18.048919 0
M  V30 68 H 7.114173 5.272781 -18.827550 0
M  V30 69 H 8.190372 4.340603 -10.768791 0
M  V30 70 H 6.742544 3.662786 -12.987087 0
M  V30 71 H 12.833664 9.221073 -7.067159 0
M  V30 72 H 6.104427 5.394193 -9.958465 0
M  V30 73 H 5.263766 6.956841 -13.662449 0
M  V30 END ATOM
M  V30 BEGIN BOND
M  V30 1 1 9 5
M  V30 2 2 9 6
M  V30 3 1 10 3
M  V30 4 1 14 13
M  V30 5 1 17 16
M  V30 6 1 18 5
M  V30 7 1 20 7
M  V30 8 2 21 10
M  V30 9 1 22 2
M  V30 10 1 22 7
M  V30 11 1 23 19
M  V30 12 1 24 8
M  V30 13 1 25 18
M  V30 14 2 25 19
M  V30 15 1 26 4
M  V30 16 1 26 11
M  V30 17 1 26 17
M  V30 18 1 27 6
M  V30 19 2 27 8
M  V30 20 1 28 4
M  V30 21 1 28 13
M  V30 22 1 30 3
M  V30 23 1 30 16
M  V30 24 1 31 13
M  V30 25 1 31 17
M  V30 26 1 32 7
M  V30 27 1 32 12
M  V30 28 1 32 21
M  V30 29 1 33 11
M  V30 30 1 33 22
M  V30 31 1 33 30
M  V30 32 1 34 1
M  V30 33 1 34 18
M  V30 34 1 34 29
M  V30 35 1 35 9
M  V30 36 2 35 24
M  V30 37 1 35 25
M  V30 38 1 37 12
M  V30 39 2 37 15
M  V30 40 1 37 23
M  V30 41 2 37 36
M  V30 42 1 38 2
M  V30 43 1 39 4
M  V30 44 1 40 4
M  V30 45 1 41 5
M  V30 46 1 42 6
M  V30 47 1 7 43 CFG=3
M  V30 48 1 44 8
M  V30 49 1 45 10
M  V30 50 1 46 11
M  V30 51 1 47 11
M  V30 52 1 48 12
M  V30 53 1 13 49 CFG=1
M  V30 54 1 50 14
M  V30 55 1 51 16
M  V30 56 1 52 16
M  V30 57 1 17 53 CFG=3
M  V30 58 1 18 54 CFG=3
M  V30 59 1 55 19
M  V30 60 1 56 20
M  V30 61 1 57 20
M  V30 62 1 58 20
M  V30 63 1 22 59 CFG=3
M  V30 64 1 60 23
M  V30 65 1 61 24
M  V30 66 1 26 62 CFG=3
M  V30 67 1 63 27
M  V30 68 1 64 28
M  V30 69 1 65 28
M  V30 70 1 30 66 CFG=3
M  V30 71 1 67 31
M  V30 72 1 68 31
M  V30 73 1 32 69 CFG=1
M  V30 74 1 33 70 CFG=1
M  V30 75 1 71 34
M  V30 76 1 72 21
M  V30 77 1 73 3
M  V30 END BOND
M  V30 END CTAB
M  END
>  <i_epik_Tot_Q>  (1) 
0

>  <i_epik_Tot_abs_Q>  (1) 
0

>  <i_i_glide_confnum>  (1) 
25

>  <i_i_glide_lignum>  (1) 
53

>  <i_i_glide_posenum>  (1) 
114

>  <i_i_glide_rotatable_bonds>  (1) 
7

>  <i_lp_mmshare_version>  (1) 
72125

>  <i_m_source_file_index>  (1) 
30

>  <i_f3d_flags>  (1) 
0

>  <num_sample>  (1) 
100

>  <b_lp_Chiralities_Consistent>  (1) 
1

>  <r_epik_Charging_Adjusted_Penalty>  (1) 
1.5459132844328078e-07

>  <r_epik_Ionization_Penalty>  (1) 
1.5952634643945804

>  <r_epik_Ionization_Penalty_Charging>  (1) 
1.5459132844328078e-07

>  <r_epik_Ionization_Penalty_Neutral>  (1) 
1.595263309803252

>  <r_epik_State_Penalty>  (1) 
-0

>  <r_glide_ring_energy>  (1) 
0

>  <r_i_docking_score>  (1) 
-6.5828272697871437

>  <r_i_glide_ecoul>  (1) 
-7.5824424532300778

>  <r_i_glide_eff_state_penalty>  (1) 
-0

>  <r_i_glide_einternal>  (1) 
1.9603016119646206

>  <r_i_glide_emodel>  (1) 
-34.774297431430291

>  <r_i_glide_emodel_strain>  (1) 
1.8113033314386939

>  <r_i_glide_energy>  (1) 
-32.711433682313995

>  <r_i_glide_erotb>  (1) 
0.28486469644810641

>  <r_i_glide_esite>  (1) 
-0.18114047232345754

>  <r_i_glide_evdw>  (1) 
-25.128991229083919

>  <r_i_glide_gscore>  (1) 
-6.5828272697871437

>  <r_i_glide_gscore_strain>  (1) 
0

>  <r_i_glide_hbond>  (1) 
-0.18343768100710278

>  <r_i_glide_ligand_efficiency>  (1) 
-0.17791425053478765

>  <r_i_glide_ligand_efficiency_ln>  (1) 
-1.427660911450078

>  <r_i_glide_ligand_efficiency_sa>  (1) 
-0.59284975335123224

>  <r_i_glide_lipo>  (1) 
-3.5111590613541002

>  <r_i_glide_metal>  (1) 
-0

>  <r_i_glide_rewards>  (1) 
-0.59813882211188174

>  <r_lp_Energy>  (1) 
49.148054999999999

>  <r_lp_tautomer_probability>  (1) 
1

>  <s_epik_Chemistry_Notes>  (1) 
This compound has an imine and may undergo hydrolysis.

>  <s_epik_cmdline>  (1) 
J2VwaWtfcHl0aG9uJywgJy1waHQnLCAnMS4wJywgJy1waCcsICc3LjQnLCAnLXRuJywgJzgnLCAnLW1hJywgJzUwMCcsICctaW1hZScsICc8aW5maWxlLm1hZT4nLCAnLW9tYWUnLCAnPG91dGZpbGUubWFlPic=

>  <s_epik_input>  (1) 
W2NIXTFbY0hdW2NIXVtjSF1jKGMxMilDKFxbQ0BASF0oW05IXTIpW0NIXShGKUYpPVtDSF1cW05IXVMoPU8pKD1PKVtOSF1bQ0BIXShbQ0BASF0oW0NIM10pW0NASF0zW09IXSlbQ0gyXVxbQ0hdPU5cW0NAQEhdKFtDSDJdNClbQ0BIXTNbQ0gyXVtDQEBIXShbQ0BASF00NSlbQ0gyXVtDSDJdW0NASF0oW09IXSlbQ0gyXTU=

>  <s_glide_docking_method>  (1) 
confgen

>  <s_i_glide_gridfile>  (1) 
gpcr_drd2_6luq_protein_autoprepared_prepared

>  <s_lp_Force_Field>  (1) 
S-OPLS

>  <s_lp_Variant>  (1) 
DiffSBDD_29_num_sample_100-3

>  <s_m_source_file>  (1) 
generated__ligand_DiffSBDD_2026-05-06_prepared.sdf

>  <GenAI_Model>  (1) 
DiffSBDD

>  <Protein>  (1) 
generic_title2

$$$$
DiffSBDD_27_num_sample_100
     RDKit          3D

  0  0  0  0  0  0  0  0  0  0999 V3000
M  V30 BEGIN CTAB
M  V30 COUNTS 57 57 0 0 1
M  V30 BEGIN ATOM
M  V30 1 C 12.085069 9.095179 -3.767937 0 CFG=2
M  V30 2 C 10.026083 5.035543 -8.564703 0
M  V30 3 N 11.127149 10.169234 -3.491665 0
M  V30 4 C 8.384570 3.963966 -15.674960 0
M  V30 5 C 11.669533 6.835280 -3.175907 0
M  V30 6 C 9.901214 7.154847 -7.203454 0
M  V30 7 N 7.703129 5.369260 -9.081821 0 CHG=1
M  V30 8 C 8.411595 5.285665 -12.093212 0
M  V30 9 C 7.757144 4.596837 -14.420444 0
M  V30 10 C 6.526502 3.778248 -14.011578 0
M  V30 11 C 9.048417 5.504357 -9.619063 0 CFG=2
M  V30 12 C 9.206048 4.717377 -10.924413 0
M  V30 13 C 11.541120 8.288192 -4.973505 0
M  V30 14 C 11.183001 8.595239 -8.711548 0
M  V30 15 C 12.234839 8.030603 -2.609048 0
M  V30 16 O 12.702222 8.197849 -1.491677 0
M  V30 17 C 11.509827 8.806873 -6.222999 0
M  V30 18 N 8.754013 4.549960 -13.328577 0 CHG=1
M  V30 19 N 10.925397 8.169026 -7.334399 0
M  V30 20 C 11.306245 6.989536 -4.418929 0
M  V30 21 C 12.100748 10.169833 -6.506142 0
M  V30 22 C 7.356785 6.046665 -14.749468 0
M  V30 23 C 10.413054 5.769805 -7.510675 0
M  V30 24 H 13.060156 9.519742 -4.005737 0
M  V30 25 H 10.432141 4.044396 -8.691709 0
M  V30 26 H 10.211509 9.808027 -3.288843 0
M  V30 27 H 11.400156 10.698848 -2.675102 0
M  V30 28 H 9.299460 4.478894 -15.971381 0
M  V30 29 H 8.632997 2.913469 -15.518609 0
M  V30 30 H 7.699737 4.005444 -16.523480 0
M  V30 31 H 11.563424 5.922411 -2.607078 0
M  V30 32 H 9.442269 7.173796 -6.215833 0
M  V30 33 H 9.079660 7.432799 -7.861737 0
M  V30 34 H 7.605281 5.982595 -8.278841 0
M  V30 35 H 7.032809 5.716736 -9.754226 0
M  V30 36 H 7.350552 5.223221 -11.861690 0
M  V30 37 H 8.643586 6.343535 -12.235674 0
M  V30 38 H 5.982682 4.197201 -13.165726 0
M  V30 39 H 5.834800 3.769511 -14.839525 0
M  V30 40 H 6.778581 2.743376 -13.776459 0
M  V30 41 H 9.216037 6.559968 -9.836920 0
M  V30 42 H 10.234885 4.744196 -11.237114 0
M  V30 43 H 8.978711 3.663222 -10.772798 0
M  V30 44 H 12.202916 8.959687 -8.844934 0
M  V30 45 H 11.069926 7.763609 -9.402937 0
M  V30 46 H 10.484175 9.369301 -9.022744 0
M  V30 47 H 9.642104 4.892270 -13.671619 0
M  V30 48 H 10.862177 6.189503 -4.975854 0
M  V30 49 H 13.183577 10.131906 -6.377131 0
M  V30 50 H 11.834847 10.569167 -7.470317 0
M  V30 51 H 11.721577 10.917001 -5.812759 0
M  V30 52 H 8.234358 6.621243 -15.032819 0
M  V30 53 H 6.657327 6.085515 -15.584720 0
M  V30 54 H 6.875357 6.551648 -13.912639 0
M  V30 55 H 11.133502 5.369280 -6.822141 0
M  V30 56 H 8.878019 3.576154 -13.088840 0
M  V30 57 H 7.483581 4.419244 -8.821150 0
M  V30 END ATOM
M  V30 BEGIN BOND
M  V30 1 1 3 1
M  V30 2 1 9 4
M  V30 3 1 10 9
M  V30 4 1 11 2
M  V30 5 1 11 7
M  V30 6 1 12 8
M  V30 7 1 12 11
M  V30 8 1 13 1
M  V30 9 1 15 1
M  V30 10 1 15 5
M  V30 11 2 16 15
M  V30 12 2 17 13
M  V30 13 1 18 8
M  V30 14 1 18 9
M  V30 15 1 19 6
M  V30 16 1 19 14
M  V30 17 1 19 17
M  V30 18 2 20 5
M  V30 19 1 20 13
M  V30 20 1 21 17
M  V30 21 1 22 9
M  V30 22 2 23 2
M  V30 23 1 23 6
M  V30 24 1 1 24 CFG=3
M  V30 25 1 25 2
M  V30 26 1 26 3
M  V30 27 1 27 3
M  V30 28 1 28 4
M  V30 29 1 29 4
M  V30 30 1 30 4
M  V30 31 1 31 5
M  V30 32 1 32 6
M  V30 33 1 33 6
M  V30 34 1 34 7
M  V30 35 1 35 7
M  V30 36 1 36 8
M  V30 37 1 37 8
M  V30 38 1 38 10
M  V30 39 1 39 10
M  V30 40 1 40 10
M  V30 41 1 11 41 CFG=3
M  V30 42 1 42 12
M  V30 43 1 43 12
M  V30 44 1 44 14
M  V30 45 1 45 14
M  V30 46 1 46 14
M  V30 47 1 47 18
M  V30 48 1 48 20
M  V30 49 1 49 21
M  V30 50 1 50 21
M  V30 51 1 51 21
M  V30 52 1 52 22
M  V30 53 1 53 22
M  V30 54 1 54 22
M  V30 55 1 55 23
M  V30 56 1 56 18
M  V30 57 1 57 7
M  V30 END BOND
M  V30 END CTAB
M  END
>  <i_epik_Tot_Q>  (1) 
2

>  <i_epik_Tot_abs_Q>  (1) 
2

>  <i_i_glide_confnum>  (1) 
95

>  <i_i_glide_lignum>  (1) 
44

>  <i_i_glide_posenum>  (1) 
283

>  <i_i_glide_rotatable_bonds>  (1) 
8

>  <i_lp_mmshare_version>  (1) 
72125

>  <i_m_source_file_index>  (1) 
28

>  <i_f3d_flags>  (1) 
0

>  <num_sample>  (1) 
100

>  <b_lp_Chiralities_Consistent>  (1) 
1

>  <r_epik_Charging_Adjusted_Penalty>  (1) 
0.47954930221194114

>  <r_epik_Ionization_Penalty>  (1) 
0.082650424812652987

>  <r_epik_Ionization_Penalty_Charging>  (1) 
0.068869463259337155

>  <r_epik_Ionization_Penalty_Neutral>  (1) 
0.013780961553315832

>  <r_epik_State_Penalty>  (1) 
0.41067983895260396

>  <r_glide_ring_energy>  (1) 
0

>  <r_i_docking_score>  (1) 
-6.5825780250075008

>  <r_i_glide_ecoul>  (1) 
-8.683892816437524

>  <r_i_glide_eff_state_penalty>  (1) 
0.41067983895260396

>  <r_i_glide_einternal>  (1) 
4.3540326464106354

>  <r_i_glide_emodel>  (1) 
-47.710833511233147

>  <r_i_glide_emodel_strain>  (1) 
0.92574313670250774

>  <r_i_glide_energy>  (1) 
-26.887498156515001

>  <r_i_glide_erotb>  (1) 
0.88107071462136088

>  <r_i_glide_esite>  (1) 
-0.10000000000000001

>  <r_i_glide_evdw>  (1) 
-18.203605340077477

>  <r_i_glide_gscore>  (1) 
-6.9932578639601051

>  <r_i_glide_gscore_strain>  (1) 
0

>  <r_i_glide_hbond>  (1) 
-0.1601430995813253

>  <r_i_glide_ligand_efficiency>  (1) 
-0.28619904456554351

>  <r_i_glide_ligand_efficiency_ln>  (1) 
-1.5917270539643467

>  <r_i_glide_ligand_efficiency_sa>  (1) 
-0.81391201250501588

>  <r_i_glide_lipo>  (1) 
-2.5810896593349879

>  <r_i_glide_metal>  (1) 
-0

>  <r_i_glide_rewards>  (1) 
-2.8203316301956494

>  <r_lp_Energy>  (1) 
30.360168999999999

>  <r_lp_tautomer_probability>  (1) 
0.5

>  <s_epik_cmdline>  (1) 
J2VwaWtfcHl0aG9uJywgJy1waHQnLCAnMS4wJywgJy1waCcsICc3LjQnLCAnLXRuJywgJzgnLCAnLW1hJywgJzUwMCcsICctaW1hZScsICc8aW5maWxlLm1hZT4nLCAnLW9tYWUnLCAnPG91dGZpbGUubWFlPic=

>  <s_epik_input>  (1) 
Tz1DMVtDSF09W0NIXUMoXFtDQEhdMVtOSDJdKT1DKFtDSDNdKS9OKFtDSDNdKVtDSDJdL1tDSF09W0NIXVxbQ0BIXShbTkgyXSlbQ0gyXVtDSDJdW05IXUMoW0NIM10pKFtDSDNdKVtDSDNd

>  <s_glide_docking_method>  (1) 
confgen

>  <s_i_glide_gridfile>  (1) 
gpcr_drd2_6luq_protein_autoprepared_prepared

>  <s_lp_Force_Field>  (1) 
S-OPLS

>  <s_lp_Variant>  (1) 
DiffSBDD_27_num_sample_100-2

>  <s_m_source_file>  (1) 
generated__ligand_DiffSBDD_2026-05-06_prepared.sdf

>  <GenAI_Model>  (1) 
DiffSBDD

>  <Protein>  (1) 
generic_title2

$$$$
DiffSBDD_83_num_sample_100
     RDKit          3D

  0  0  0  0  0  0  0  0  0  0999 V3000
M  V30 BEGIN CTAB
M  V30 COUNTS 49 53 0 0 1
M  V30 BEGIN ATOM
M  V30 1 C 10.161418 7.285679 -10.095923 0
M  V30 2 C 3.809732 6.944483 -17.255857 0
M  V30 3 C 6.223650 6.690682 -17.063677 0 CFG=1
M  V30 4 C 6.373186 6.969302 -13.500196 0
M  V30 5 C 5.834541 6.059451 -15.759990 0 CFG=2
M  V30 6 N 7.345202 6.144854 -11.132840 0 CHG=1
M  V30 7 C 5.823685 6.121432 -18.396087 0
M  V30 8 C 10.824530 7.366898 -7.752996 0
M  V30 9 C 4.989309 7.174377 -16.339071 0 CFG=2
M  V30 10 C 6.661729 6.217127 -14.549007 0
M  V30 11 C 11.556645 8.048151 -6.626810 0
M  V30 12 C 8.660709 5.422051 -10.963255 0 CFG=1
M  V30 13 C 9.408892 5.551392 -8.547969 0
M  V30 14 C 7.833713 5.567125 -14.285562 0
M  V30 15 C 10.856422 7.916064 -9.049831 0
M  V30 16 C 4.406943 6.637682 -18.640911 0
M  V30 17 C 9.399652 5.343143 -12.348219 0
M  V30 18 C 10.101200 6.185650 -7.504209 0
M  V30 19 C 8.274990 5.932516 -13.096331 0
M  V30 20 C 10.667458 9.072067 -5.934955 0
M  V30 21 O 11.396090 9.769300 -4.946483 0
M  V30 22 C 7.438715 6.971462 -12.341047 0 CFG=1
M  V30 23 C 9.434839 6.098486 -9.846278 0
M  V30 24 H 10.178933 7.714784 -11.086011 0
M  V30 25 H 3.222734 6.109550 -16.875719 0
M  V30 26 H 3.160479 7.820032 -17.281067 0
M  V30 27 H 7.034839 7.395736 -17.091946 0
M  V30 28 H 5.483163 7.578318 -13.428415 0
M  V30 29 H 5.434840 5.060548 -15.791790 0
M  V30 30 H 6.599028 5.475734 -11.238972 0
M  V30 31 H 5.839595 5.032238 -18.340826 0
M  V30 32 H 6.514848 6.434689 -19.178574 0
M  V30 33 H 5.047943 8.160509 -15.880846 0
M  V30 34 H 12.464601 8.513968 -7.014504 0
M  V30 35 H 11.834839 7.286232 -5.900219 0
M  V30 36 H 8.421810 4.406374 -10.643493 0
M  V30 37 H 8.849712 4.648048 -8.351307 0
M  V30 38 H 8.283711 4.812734 -14.914845 0
M  V30 39 H 11.408756 8.824913 -9.239943 0
M  V30 40 H 3.834839 5.915553 -19.215958 0
M  V30 41 H 4.454529 7.559952 -19.221984 0
M  V30 42 H 10.287302 5.968222 -12.433988 0
M  V30 43 H 9.631632 4.325048 -12.664294 0
M  V30 44 H 10.073964 5.769301 -6.508356 0
M  V30 45 H 9.816304 8.562540 -5.491667 0
M  V30 46 H 10.273503 9.769302 -6.666295 0
M  V30 47 H 12.080734 10.264170 -5.370109 0
M  V30 48 H 7.974367 7.912354 -12.208781 0
M  V30 49 H 7.144836 6.770608 -10.333387 0
M  V30 END ATOM
M  V30 BEGIN BOND
M  V30 1 1 5 3
M  V30 2 1 7 3
M  V30 3 1 9 2
M  V30 4 1 9 3
M  V30 5 1 9 5
M  V30 6 2 10 4
M  V30 7 1 10 5
M  V30 8 1 11 8
M  V30 9 1 12 6
M  V30 10 1 14 10
M  V30 11 2 15 1
M  V30 12 1 15 8
M  V30 13 1 16 2
M  V30 14 1 16 7
M  V30 15 1 17 12
M  V30 16 2 18 8
M  V30 17 1 18 13
M  V30 18 2 19 14
M  V30 19 1 19 17
M  V30 20 1 20 11
M  V30 21 1 21 20
M  V30 22 1 22 4
M  V30 23 1 22 6
M  V30 24 1 22 19
M  V30 25 1 23 1
M  V30 26 1 23 12
M  V30 27 2 23 13
M  V30 28 1 24 1
M  V30 29 1 25 2
M  V30 30 1 26 2
M  V30 31 1 3 27 CFG=3
M  V30 32 1 28 4
M  V30 33 1 5 29 CFG=3
M  V30 34 1 30 6
M  V30 35 1 31 7
M  V30 36 1 32 7
M  V30 37 1 9 33 CFG=1
M  V30 38 1 34 11
M  V30 39 1 35 11
M  V30 40 1 12 36 CFG=1
M  V30 41 1 37 13
M  V30 42 1 38 14
M  V30 43 1 39 15
M  V30 44 1 40 16
M  V30 45 1 41 16
M  V30 46 1 42 17
M  V30 47 1 43 17
M  V30 48 1 44 18
M  V30 49 1 45 20
M  V30 50 1 46 20
M  V30 51 1 47 21
M  V30 52 1 22 48 CFG=1
M  V30 53 1 49 6
M  V30 END BOND
M  V30 END CTAB
M  END
>  <i_epik_Tot_Q>  (1) 
1

>  <i_epik_Tot_abs_Q>  (1) 
1

>  <i_i_glide_confnum>  (1) 
4

>  <i_i_glide_lignum>  (1) 
170

>  <i_i_glide_posenum>  (1) 
290

>  <i_i_glide_rotatable_bonds>  (1) 
5

>  <i_lp_mmshare_version>  (1) 
72125

>  <i_m_source_file_index>  (1) 
84

>  <i_f3d_flags>  (1) 
0

>  <num_sample>  (1) 
100

>  <b_lp_Chiralities_Consistent>  (1) 
1

>  <r_epik_Charging_Adjusted_Penalty>  (1) 
0.3591125196210796

>  <r_epik_Ionization_Penalty>  (1) 
0.17955633890062345

>  <r_epik_Ionization_Penalty_Charging>  (1) 
0.1795562598105398

>  <r_epik_Ionization_Penalty_Neutral>  (1) 
7.9090083639956194e-08

>  <r_epik_State_Penalty>  (1) 
0.1795562598105398

>  <r_glide_ring_energy>  (1) 
1.4396960314071907

>  <r_i_docking_score>  (1) 
-6.5818832987954474

>  <r_i_glide_ecoul>  (1) 
-7.3870535769728081

>  <r_i_glide_eff_state_penalty>  (1) 
0.1795562598105398

>  <r_i_glide_einternal>  (1) 
2.8629407216678118

>  <r_i_glide_emodel>  (1) 
-51.522150556942414

>  <r_i_glide_emodel_strain>  (1) 
0

>  <r_i_glide_energy>  (1) 
-35.417308609265277

>  <r_i_glide_erotb>  (1) 
0.77787292059137758

>  <r_i_glide_esite>  (1) 
-0.10000000000000001

>  <r_i_glide_evdw>  (1) 
-28.03025503229247

>  <r_i_glide_gscore>  (1) 
-6.7614395586059874

>  <r_i_glide_gscore_strain>  (1) 
0

>  <r_i_glide_hbond>  (1) 
-0.14527215874116667

>  <r_i_glide_ligand_efficiency>  (1) 
-0.28616883907806295

>  <r_i_glide_ligand_efficiency_ln>  (1) 
-1.591559062866843

>  <r_i_glide_ligand_efficiency_sa>  (1) 
-0.81382611211655953

>  <r_i_glide_lipo>  (1) 
-2.5784295550229253

>  <r_i_glide_metal>  (1) 
-0

>  <r_i_glide_rewards>  (1) 
-2.2060399772727286

>  <r_lp_Energy>  (1) 
32.732737999999998

>  <s_epik_cmdline>  (1) 
J2VwaWtfcHl0aG9uJywgJy1waHQnLCAnMS4wJywgJy1waCcsICc3LjQnLCAnLXRuJywgJzgnLCAnLW1hJywgJzUwMCcsICctaW1hZScsICc8aW5maWxlLm1hZT4nLCAnLW9tYWUnLCAnPG91dGZpbGUubWFlPic=

>  <s_epik_input>  (1) 
W09IXVtDSDJdW0NIMl1jMVtjSF1bY0hdYyhbY0hdW2NIXTEpW0NASF0oW0NIMl0yKVtOSF1bQ0BIXShDMjMpW0NIXT1DKFtDSF09MylbQ0BIXTRbQ0BASF0oW0NAQEhdNDUpW0NIMl1bQ0gyXVtDSDJdNQ==

>  <s_glide_docking_method>  (1) 
confgen

>  <s_i_glide_gridfile>  (1) 
gpcr_drd2_6luq_protein_autoprepared_prepared

>  <s_lp_Force_Field>  (1) 
S-OPLS

>  <s_lp_Variant>  (1) 
DiffSBDD_83_num_sample_100-2

>  <s_m_source_file>  (1) 
generated__ligand_DiffSBDD_2026-05-06_prepared.sdf

>  <GenAI_Model>  (1) 
DiffSBDD

>  <Protein>  (1) 
generic_title2

$$$$
DiffSBDD_90_num_sample_100
     RDKit          3D

  0  0  0  0  0  0  0  0  0  0999 V3000
M  V30 BEGIN CTAB
M  V30 COUNTS 61 65 0 0 1
M  V30 BEGIN ATOM
M  V30 1 C 6.794727 2.088667 -18.303107 0
M  V30 2 C 7.458104 3.940024 -15.713865 0
M  V30 3 C 11.310620 6.682841 -4.408589 0
M  V30 4 S 6.532000 0.582011 -19.141847 0
M  V30 5 C 7.974839 3.552463 -13.336643 0
M  V30 6 C 7.580856 1.678599 -14.828968 0
M  V30 7 C 7.883414 2.146620 -13.544067 0
M  V30 8 C 11.277881 6.621888 -5.961562 0
M  V30 9 C 11.656670 9.255856 -4.300162 0
M  V30 10 C 12.020040 7.850989 -2.207960 0
M  V30 11 N 10.293649 7.531834 -6.609070 0 CFG=1 CHG=1
M  V30 12 C 10.729218 8.952844 -6.715787 0
M  V30 13 C 8.776376 5.231359 -9.381680 0
M  V30 14 C 8.123329 6.340486 -12.917672 0
M  V30 15 C 7.380322 2.549941 -15.864521 0
M  V30 16 C 9.861773 7.074986 -7.961897 0
M  V30 17 C 6.843895 -0.328438 -17.672467 0
M  V30 18 C 7.429632 0.148527 -15.218698 0
M  V30 19 C 8.272681 4.057457 -12.060357 0
M  V30 20 C 11.881655 9.426104 -5.810569 0
M  V30 21 N 7.110922 0.527397 -16.669172 0 CHG=1
M  V30 22 C 6.826851 -1.812722 -17.507511 0
M  V30 23 C 12.054897 7.874415 -3.746335 0 CFG=1
M  V30 24 C 7.835335 5.841596 -14.207148 0
M  V30 25 C 7.757193 4.453071 -14.424586 0
M  V30 26 C 8.623214 5.994606 -10.485803 0
M  V30 27 C 9.056918 5.768633 -7.990694 0
M  V30 28 C 8.341506 5.453757 -11.837153 0
M  V30 29 C 7.091619 1.846470 -16.992185 0
M  V30 30 H 6.711883 3.034923 -18.819655 0
M  V30 31 H 7.288980 4.601187 -16.551492 0
M  V30 32 H 11.816831 5.775062 -4.074784 0
M  V30 33 H 10.299329 6.569083 -4.019543 0
M  V30 34 H 8.043611 1.455668 -12.727559 0
M  V30 35 H 11.027130 5.600634 -6.194489 0
M  V30 36 H 12.234806 6.725417 -6.450827 0
M  V30 37 H 12.291580 9.980368 -3.795349 0
M  V30 38 H 10.635181 9.537356 -4.045550 0
M  V30 39 H 11.034718 8.009840 -1.785772 0
M  V30 40 H 12.383352 6.898164 -1.824449 0
M  V30 41 H 12.658816 8.637702 -1.798360 0
M  V30 42 H 11.049031 9.162614 -7.739082 0
M  V30 43 H 9.837172 9.545459 -6.564623 0
M  V30 44 H 8.696565 4.169876 -9.455639 0
M  V30 45 H 8.171607 7.409051 -12.755592 0
M  V30 46 H 10.734868 6.983645 -8.611488 0
M  V30 47 H 9.228777 7.854212 -8.390173 0
M  V30 48 H 8.351407 -0.429638 -15.164196 0
M  V30 49 H 6.574209 -0.346454 -14.756204 0
M  V30 50 H 8.442727 3.373334 -11.254325 0
M  V30 51 H 12.814383 8.969302 -6.130757 0
M  V30 52 H 12.029926 10.487066 -6.014399 0
M  V30 53 H 7.800468 -2.138667 -17.139558 0
M  V30 54 H 6.042700 -2.088417 -16.801345 0
M  V30 55 H 13.119136 7.742982 -3.910833 0
M  V30 56 H 7.671030 6.528630 -15.025390 0
M  V30 57 H 8.699013 7.066477 -10.403265 0
M  V30 58 H 8.119401 5.870282 -7.451949 0
M  V30 59 H 9.592051 4.969336 -7.493583 0
M  V30 60 H 6.629857 -2.266055 -18.477393 0
M  V30 61 H 9.463212 7.524232 -6.030953 0
M  V30 END ATOM
M  V30 BEGIN BOND
M  V30 1 1 4 1
M  V30 2 2 7 5
M  V30 3 1 7 6
M  V30 4 1 8 3
M  V30 5 1 11 8
M  V30 6 1 12 11
M  V30 7 1 15 2
M  V30 8 2 15 6
M  V30 9 1 16 11
M  V30 10 1 17 4
M  V30 11 1 18 6
M  V30 12 1 19 5
M  V30 13 1 20 9
M  V30 14 1 20 12
M  V30 15 2 21 17
M  V30 16 1 21 18
M  V30 17 1 22 17
M  V30 18 1 23 3
M  V30 19 1 23 9
M  V30 20 1 23 10
M  V30 21 2 24 14
M  V30 22 2 25 2
M  V30 23 1 25 5
M  V30 24 1 25 24
M  V30 25 2 26 13
M  V30 26 1 27 13
M  V30 27 1 27 16
M  V30 28 1 28 14
M  V30 29 2 28 19
M  V30 30 1 28 26
M  V30 31 2 29 1
M  V30 32 1 29 15
M  V30 33 1 29 21
M  V30 34 1 30 1
M  V30 35 1 31 2
M  V30 36 1 32 3
M  V30 37 1 33 3
M  V30 38 1 34 7
M  V30 39 1 35 8
M  V30 40 1 36 8
M  V30 41 1 37 9
M  V30 42 1 38 9
M  V30 43 1 39 10
M  V30 44 1 40 10
M  V30 45 1 41 10
M  V30 46 1 42 12
M  V30 47 1 43 12
M  V30 48 1 44 13
M  V30 49 1 45 14
M  V30 50 1 46 16
M  V30 51 1 47 16
M  V30 52 1 48 18
M  V30 53 1 49 18
M  V30 54 1 50 19
M  V30 55 1 51 20
M  V30 56 1 52 20
M  V30 57 1 53 22
M  V30 58 1 54 22
M  V30 59 1 23 55 CFG=1
M  V30 60 1 56 24
M  V30 61 1 57 26
M  V30 62 1 58 27
M  V30 63 1 59 27
M  V30 64 1 60 22
M  V30 65 1 11 61 CFG=1
M  V30 END BOND
M  V30 END CTAB
M  END
>  <i_epik_Tot_Q>  (1) 
2

>  <i_epik_Tot_abs_Q>  (1) 
2

>  <i_i_glide_confnum>  (1) 
168

>  <i_i_glide_lignum>  (1) 
182

>  <i_i_glide_posenum>  (1) 
215

>  <i_i_glide_rotatable_bonds>  (1) 
4

>  <i_lp_mmshare_version>  (1) 
72125

>  <i_m_source_file_index>  (1) 
91

>  <i_f3d_flags>  (1) 
0

>  <num_sample>  (1) 
100

>  <b_lp_Chiralities_Consistent>  (1) 
1

>  <r_epik_Charging_Adjusted_Penalty>  (1) 
0.0021252633397680827

>  <r_epik_Ionization_Penalty>  (1) 
0.002125263340211697

>  <r_epik_Ionization_Penalty_Charging>  (1) 
0.0021252633397680827

>  <r_epik_Ionization_Penalty_Neutral>  (1) 
4.4361447992621368e-13

>  <r_epik_State_Penalty>  (1) 
-0

>  <r_glide_ring_energy>  (1) 
1.2599846203736671

>  <r_i_docking_score>  (1) 
-6.5712752306644395

>  <r_i_glide_ecoul>  (1) 
-3.7204159005993436

>  <r_i_glide_eff_state_penalty>  (1) 
-0

>  <r_i_glide_einternal>  (1) 
5.0820605844084863

>  <r_i_glide_emodel>  (1) 
-48.389353957017747

>  <r_i_glide_emodel_strain>  (1) 
0.46953731438422608

>  <r_i_glide_energy>  (1) 
-35.459627383613253

>  <r_i_glide_erotb>  (1) 
0.47996519481946287

>  <r_i_glide_esite>  (1) 
0

>  <r_i_glide_evdw>  (1) 
-31.739211483013911

>  <r_i_glide_gscore>  (1) 
-6.5712752306644395

>  <r_i_glide_gscore_strain>  (1) 
0

>  <r_i_glide_hbond>  (1) 
0

>  <r_i_glide_ligand_efficiency>  (1) 
-0.2265956976091186

>  <r_i_glide_ligand_efficiency_ln>  (1) 
-1.5046553946598096

>  <r_i_glide_ligand_efficiency_sa>  (1) 
-0.69617377439251749

>  <r_i_glide_lipo>  (1) 
-3.2942263136969294

>  <r_i_glide_metal>  (1) 
-0

>  <r_i_glide_rewards>  (1) 
-1.6119911525463753

>  <r_lp_Energy>  (1) 
47.281444999999998

>  <r_lp_tautomer_probability>  (1) 
1

>  <s_epik_cmdline>  (1) 
J2VwaWtfcHl0aG9uJywgJy1waHQnLCAnMS4wJywgJy1waCcsICc3LjQnLCAnLXRuJywgJzgnLCAnLW1hJywgJzUwMCcsICctaW1hZScsICc8aW5maWxlLm1hZT4nLCAnLW9tYWUnLCAnPG91dGZpbGUubWFlPic=

>  <s_epik_input>  (1) 
W0NIMl09QzFTW0NIXT1DMk4xW0NIMl1jKFtjSF0zKWMyW2NIXWMoYzM0KVtjSF1bY0hdYyhbY0hdNClcW0NIXT1bQ0hdXFtDSDJdW0NIMl1ONVtDSDJdW0NIMl1bQ0BIXShbQ0gzXSlbQ0gyXVtDSDJdW0NIMl01

>  <s_glide_docking_method>  (1) 
confgen

>  <s_i_glide_gridfile>  (1) 
gpcr_drd2_6luq_protein_autoprepared_prepared

>  <s_lp_Force_Field>  (1) 
S-OPLS

>  <s_lp_Variant>  (1) 
DiffSBDD_90_num_sample_100-2

>  <s_m_source_file>  (1) 
generated__ligand_DiffSBDD_2026-05-06_prepared.sdf

>  <GenAI_Model>  (1) 
DiffSBDD

>  <Protein>  (1) 
generic_title2

$$$$
DiffSBDD_27_num_sample_100
     RDKit          3D

  0  0  0  0  0  0  0  0  0  0999 V3000
M  V30 BEGIN CTAB
M  V30 COUNTS 57 57 0 0 1
M  V30 BEGIN ATOM
M  V30 1 C 6.343324 5.535801 -18.892765 0 CFG=2
M  V30 2 C 8.840632 5.726489 -12.703592 0
M  V30 3 N 5.976716 4.132114 -19.091631 0
M  V30 4 C 10.013352 8.728202 -9.344050 0
M  V30 5 C 4.842030 7.374805 -18.884743 0
M  V30 6 C 8.011086 4.297748 -14.651343 0
M  V30 7 N 6.751684 6.169292 -11.491674 0 CHG=1
M  V30 8 C 9.548465 5.613344 -9.650510 0
M  V30 9 C 9.941528 7.673233 -8.225267 0
M  V30 10 C 9.384561 8.321290 -6.944568 0
M  V30 11 C 7.838197 5.194930 -11.680639 0 CFG=2
M  V30 12 C 8.470614 4.732901 -10.337076 0
M  V30 13 C 6.089124 6.058887 -17.425958 0
M  V30 14 C 8.306336 4.083014 -17.083041 0
M  V30 15 C 5.456993 6.471772 -19.811247 0
M  V30 16 O 5.289564 6.402686 -21.026578 0
M  V30 17 C 6.559554 5.688792 -16.193958 0
M  V30 18 N 9.034839 6.569306 -8.637448 0 CHG=1
M  V30 19 N 7.570016 4.709254 -15.989384 0
M  V30 20 C 5.180005 7.146198 -17.645763 0
M  V30 21 C 6.033465 6.339854 -14.910589 0
M  V30 22 C 11.359495 7.159375 -7.929544 0
M  V30 23 C 8.917197 5.331562 -13.993268 0
M  V30 24 H 7.385514 5.684784 -19.169074 0
M  V30 25 H 9.532782 6.474472 -12.351026 0
M  V30 26 H 4.999002 3.972304 -18.896632 0
M  V30 27 H 6.122284 3.847279 -20.050541 0
M  V30 28 H 10.340130 8.311119 -10.294877 0
M  V30 29 H 9.045358 9.202568 -9.512551 0
M  V30 30 H 10.737131 9.502616 -9.093833 0
M  V30 31 H 4.172199 8.158118 -19.208192 0
M  V30 32 H 7.149396 4.003869 -14.061047 0
M  V30 33 H 8.591731 3.380218 -14.734619 0
M  V30 34 H 6.458586 6.542459 -12.382498 0
M  V30 35 H 5.966163 5.713697 -11.049062 0
M  V30 36 H 10.216480 4.948282 -9.101011 0
M  V30 37 H 10.173486 6.117799 -10.381876 0
M  V30 38 H 9.312218 7.597546 -6.131872 0
M  V30 39 H 10.030130 9.130842 -6.601468 0
M  V30 40 H 8.390216 8.742793 -7.093918 0
M  V30 41 H 7.346092 4.310309 -12.074762 0
M  V30 42 H 7.691664 4.461034 -9.622342 0
M  V30 43 H 8.976478 3.795086 -10.580413 0
M  V30 44 H 7.726648 3.285093 -17.542497 0
M  V30 45 H 8.617352 4.809248 -17.829504 0
M  V30 46 H 9.229567 3.626455 -16.725139 0
M  V30 47 H 8.170867 7.019679 -8.971486 0
M  V30 48 H 4.798493 7.751143 -16.838802 0
M  V30 49 H 5.917758 5.646233 -14.084558 0
M  V30 50 H 6.685901 7.159977 -14.609630 0
M  V30 51 H 5.034867 6.743367 -15.036779 0
M  V30 52 H 11.834865 6.846037 -8.854947 0
M  V30 53 H 11.988308 7.943767 -7.506564 0
M  V30 54 H 11.362398 6.321972 -7.229580 0
M  V30 55 H 9.671767 5.769187 -14.629550 0
M  V30 56 H 8.779387 6.048386 -7.810394 0
M  V30 57 H 7.033797 6.936008 -10.878306 0
M  V30 END ATOM
M  V30 BEGIN BOND
M  V30 1 1 3 1
M  V30 2 1 9 4
M  V30 3 1 10 9
M  V30 4 1 11 2
M  V30 5 1 11 7
M  V30 6 1 12 8
M  V30 7 1 12 11
M  V30 8 1 13 1
M  V30 9 1 15 1
M  V30 10 1 15 5
M  V30 11 2 16 15
M  V30 12 2 17 13
M  V30 13 1 18 8
M  V30 14 1 18 9
M  V30 15 1 19 6
M  V30 16 1 19 14
M  V30 17 1 19 17
M  V30 18 2 20 5
M  V30 19 1 20 13
M  V30 20 1 21 17
M  V30 21 1 22 9
M  V30 22 2 23 2
M  V30 23 1 23 6
M  V30 24 1 1 24 CFG=3
M  V30 25 1 25 2
M  V30 26 1 26 3
M  V30 27 1 27 3
M  V30 28 1 28 4
M  V30 29 1 29 4
M  V30 30 1 30 4
M  V30 31 1 31 5
M  V30 32 1 32 6
M  V30 33 1 33 6
M  V30 34 1 34 7
M  V30 35 1 35 7
M  V30 36 1 36 8
M  V30 37 1 37 8
M  V30 38 1 38 10
M  V30 39 1 39 10
M  V30 40 1 40 10
M  V30 41 1 11 41 CFG=3
M  V30 42 1 42 12
M  V30 43 1 43 12
M  V30 44 1 44 14
M  V30 45 1 45 14
M  V30 46 1 46 14
M  V30 47 1 47 18
M  V30 48 1 48 20
M  V30 49 1 49 21
M  V30 50 1 50 21
M  V30 51 1 51 21
M  V30 52 1 52 22
M  V30 53 1 53 22
M  V30 54 1 54 22
M  V30 55 1 55 23
M  V30 56 1 56 18
M  V30 57 1 57 7
M  V30 END BOND
M  V30 END CTAB
M  END
>  <i_epik_Tot_Q>  (1) 
2

>  <i_epik_Tot_abs_Q>  (1) 
2

>  <i_i_glide_confnum>  (1) 
334

>  <i_i_glide_lignum>  (1) 
46

>  <i_i_glide_posenum>  (1) 
110

>  <i_i_glide_rotatable_bonds>  (1) 
8

>  <i_lp_mmshare_version>  (1) 
72125

>  <i_m_source_file_index>  (1) 
28

>  <i_f3d_flags>  (1) 
0

>  <num_sample>  (1) 
100

>  <b_lp_Chiralities_Consistent>  (1) 
1

>  <r_epik_Charging_Adjusted_Penalty>  (1) 
0.47954930221194114

>  <r_epik_Ionization_Penalty>  (1) 
0.082650424812652987

>  <r_epik_Ionization_Penalty_Charging>  (1) 
0.068869463259337155

>  <r_epik_Ionization_Penalty_Neutral>  (1) 
0.013780961553315832

>  <r_epik_State_Penalty>  (1) 
0.41067983895260396

>  <r_glide_ring_energy>  (1) 
0

>  <r_i_docking_score>  (1) 
-6.5593883522916272

>  <r_i_glide_ecoul>  (1) 
-12.073758137787509

>  <r_i_glide_eff_state_penalty>  (1) 
0.41067983895260396

>  <r_i_glide_einternal>  (1) 
14.176523671759476

>  <r_i_glide_emodel>  (1) 
-53.979296174125928

>  <r_i_glide_emodel_strain>  (1) 
0.48676941511595118

>  <r_i_glide_energy>  (1) 
-35.329040590193713

>  <r_i_glide_erotb>  (1) 
0.88107071462136088

>  <r_i_glide_esite>  (1) 
-0.19821150701793708

>  <r_i_glide_evdw>  (1) 
-23.255282452406206

>  <r_i_glide_gscore>  (1) 
-6.9700681912442315

>  <r_i_glide_gscore_strain>  (1) 
0

>  <r_i_glide_hbond>  (1) 
-0.40000000000000002

>  <r_i_glide_ligand_efficiency>  (1) 
-0.28519079792572294

>  <r_i_glide_ligand_efficiency_ln>  (1) 
-1.5861195808293216

>  <r_i_glide_ligand_efficiency_sa>  (1) 
-0.81104469317848382

>  <r_i_glide_lipo>  (1) 
-1.5227092450310251

>  <r_i_glide_metal>  (1) 
-0

>  <r_i_glide_rewards>  (1) 
-2.7563903105281917

>  <r_lp_Energy>  (1) 
29.545608999999999

>  <r_lp_tautomer_probability>  (1) 
0.5

>  <s_epik_cmdline>  (1) 
J2VwaWtfcHl0aG9uJywgJy1waHQnLCAnMS4wJywgJy1waCcsICc3LjQnLCAnLXRuJywgJzgnLCAnLW1hJywgJzUwMCcsICctaW1hZScsICc8aW5maWxlLm1hZT4nLCAnLW9tYWUnLCAnPG91dGZpbGUubWFlPic=

>  <s_epik_input>  (1) 
Tz1DMVtDSF09W0NIXUMoXFtDQEhdMVtOSDJdKT1DKFtDSDNdKVxOKFtDSDNdKVtDSDJdL1tDSF09W0NIXVxbQ0BIXShbTkgyXSlbQ0gyXVtDSDJdW05IXUMoW0NIM10pKFtDSDNdKVtDSDNd

>  <s_glide_docking_method>  (1) 
confgen

>  <s_i_glide_gridfile>  (1) 
gpcr_drd2_6luq_protein_autoprepared_prepared

>  <s_lp_Force_Field>  (1) 
S-OPLS

>  <s_lp_Variant>  (1) 
DiffSBDD_27_num_sample_100-4

>  <s_m_source_file>  (1) 
generated__ligand_DiffSBDD_2026-05-06_prepared.sdf

>  <GenAI_Model>  (1) 
DiffSBDD

>  <Protein>  (1) 
generic_title2

$$$$
DiffSBDD_37_num_sample_100
     RDKit          3D

  0  0  0  0  0  0  0  0  0  0999 V3000
M  V30 BEGIN CTAB
M  V30 COUNTS 41 43 0 0 1
M  V30 BEGIN ATOM
M  V30 1 C 10.402242 6.545415 -6.126895 0
M  V30 2 O 10.495679 8.171501 -10.692025 0
M  V30 3 C 11.431248 8.674609 -6.551031 0
M  V30 4 C 10.089941 6.412736 -7.500405 0
M  V30 5 C 6.430819 3.912866 -12.960841 0 CFG=1
M  V30 6 O 5.522921 3.769322 -10.692506 0
M  V30 7 C 9.256080 5.884470 -11.552879 0
M  V30 8 C 6.558043 2.403757 -13.237465 0
M  V30 9 O 11.434795 7.848230 -4.368342 0
M  V30 10 C 7.520129 6.173517 -13.453227 0
M  V30 11 O 9.542943 6.174536 -10.183833 0
M  V30 12 C 10.471737 7.435395 -8.408176 0
M  V30 13 S 12.234089 10.025685 -5.891840 0
M  V30 14 C 6.736520 5.706461 -11.147532 0
M  V30 15 C 6.613312 4.226575 -11.458758 0 CFG=2
M  V30 16 C 11.145574 8.577116 -7.922299 0
M  V30 17 C 7.848818 6.382958 -11.961625 0 CFG=1
M  V30 18 C 11.082550 7.684334 -5.677488 0
M  V30 19 C 7.455020 4.682143 -13.820458 0
M  V30 20 C 10.179674 7.321665 -9.867178 0
M  V30 21 C 12.037821 9.166435 -4.267122 0
M  V30 22 H 10.126939 5.769673 -5.429429 0
M  V30 23 H 9.570837 5.532688 -7.851587 0
M  V30 24 H 5.434394 4.240875 -13.257363 0
M  V30 25 H 5.571285 4.149269 -9.820934 0
M  V30 26 H 9.340727 4.805690 -11.683290 0
M  V30 27 H 10.016394 6.312508 -12.209310 0
M  V30 28 H 7.548508 2.034612 -12.968097 0
M  V30 29 H 5.834584 1.828411 -12.664279 0
M  V30 30 H 6.391978 2.178198 -14.290702 0
M  V30 31 H 6.558090 6.638435 -13.674368 0
M  V30 32 H 8.235875 6.684487 -14.088089 0
M  V30 33 H 5.790196 6.223017 -11.325561 0
M  V30 34 H 6.938642 5.768747 -10.079594 0
M  V30 35 H 7.526525 3.769294 -11.091587 0
M  V30 36 H 11.439256 9.368090 -8.597996 0
M  V30 37 H 7.812628 7.454601 -11.761909 0
M  V30 38 H 7.200781 4.577125 -14.876640 0
M  V30 39 H 8.443737 4.235063 -13.707320 0
M  V30 40 H 13.012907 9.085005 -3.786159 0
M  V30 41 H 11.414092 9.784918 -3.621377 0
M  V30 END ATOM
M  V30 BEGIN BOND
M  V30 1 2 4 1
M  V30 2 1 8 5
M  V30 3 1 11 7
M  V30 4 1 12 4
M  V30 5 1 13 3
M  V30 6 1 15 5
M  V30 7 1 15 6
M  V30 8 1 15 14
M  V30 9 1 16 3
M  V30 10 2 16 12
M  V30 11 1 17 7
M  V30 12 1 17 10
M  V30 13 1 17 14
M  V30 14 1 18 1
M  V30 15 2 18 3
M  V30 16 1 18 9
M  V30 17 1 19 5
M  V30 18 1 19 10
M  V30 19 2 20 2
M  V30 20 1 20 11
M  V30 21 1 20 12
M  V30 22 1 21 9
M  V30 23 1 21 13
M  V30 24 1 22 1
M  V30 25 1 23 4
M  V30 26 1 5 24 CFG=3
M  V30 27 1 25 6
M  V30 28 1 26 7
M  V30 29 1 27 7
M  V30 30 1 28 8
M  V30 31 1 29 8
M  V30 32 1 30 8
M  V30 33 1 31 10
M  V30 34 1 32 10
M  V30 35 1 33 14
M  V30 36 1 34 14
M  V30 37 1 15 35 CFG=1
M  V30 38 1 36 16
M  V30 39 1 17 37 CFG=3
M  V30 40 1 38 19
M  V30 41 1 39 19
M  V30 42 1 40 21
M  V30 43 1 41 21
M  V30 END BOND
M  V30 END CTAB
M  END
>  <i_epik_Tot_Q>  (1) 
0

>  <i_epik_Tot_abs_Q>  (1) 
0

>  <i_i_glide_confnum>  (1) 
27

>  <i_i_glide_lignum>  (1) 
67

>  <i_i_glide_posenum>  (1) 
325

>  <i_i_glide_rotatable_bonds>  (1) 
5

>  <i_lp_mmshare_version>  (1) 
72125

>  <i_m_source_file_index>  (1) 
38

>  <i_f3d_flags>  (1) 
0

>  <num_sample>  (1) 
100

>  <b_lp_Chiralities_Consistent>  (1) 
1

>  <r_epik_Charging_Adjusted_Penalty>  (1) 
0

>  <r_epik_Ionization_Penalty>  (1) 
3.9594371976728403e-07

>  <r_epik_Ionization_Penalty_Charging>  (1) 
0

>  <r_epik_Ionization_Penalty_Neutral>  (1) 
3.9594371976728403e-07

>  <r_epik_State_Penalty>  (1) 
-0

>  <r_glide_ring_energy>  (1) 
0.19167433941693801

>  <r_i_docking_score>  (1) 
-6.55486131351305

>  <r_i_glide_ecoul>  (1) 
-5.0673957699579972

>  <r_i_glide_eff_state_penalty>  (1) 
-0

>  <r_i_glide_einternal>  (1) 
0.53878609271155664

>  <r_i_glide_emodel>  (1) 
-51.59911523319073

>  <r_i_glide_emodel_strain>  (1) 
0.048893539906217143

>  <r_i_glide_energy>  (1) 
-36.983237370037074

>  <r_i_glide_erotb>  (1) 
0.58356430474883259

>  <r_i_glide_esite>  (1) 
-0.064551580162462693

>  <r_i_glide_evdw>  (1) 
-31.915841600079073

>  <r_i_glide_gscore>  (1) 
-6.55486131351305

>  <r_i_glide_gscore_strain>  (1) 
0

>  <r_i_glide_hbond>  (1) 
-0.32000000000000001

>  <r_i_glide_ligand_efficiency>  (1) 
-0.31213625302443093

>  <r_i_glide_ligand_efficiency_ln>  (1) 
-1.6206762144216573

>  <r_i_glide_ligand_efficiency_sa>  (1) 
-0.8611602547941174

>  <r_i_glide_lipo>  (1) 
-2.2042049388509564

>  <r_i_glide_metal>  (1) 
-0

>  <r_i_glide_rewards>  (1) 
-2.1937676537508093

>  <r_lp_Energy>  (1) 
12.800905

>  <r_lp_tautomer_probability>  (1) 
1

>  <s_epik_Chemistry_Notes>  (1) 
This compound has an ester and may undergo hydrolysis at high or low pH. This compound contains an acetal/aminal-like group ( X-CH(R)-Y where X, Y are N, S, or O) that may be acid/base labile, releasing an aldehyde.

>  <s_epik_cmdline>  (1) 
J2VwaWtfcHl0aG9uJywgJy1waHQnLCAnMS4wJywgJy1waCcsICc3LjQnLCAnLXRuJywgJzgnLCAnLW1hJywgJzUwMCcsICctaW1hZScsICc8aW5maWxlLm1hZT4nLCAnLW9tYWUnLCAnPG91dGZpbGUubWFlPic=

>  <s_epik_input>  (1) 
UzFbQ0gyXU9jKGMxMilbY0hdW2NIXWMoW2NIXTIpQyg9TylPW0NIMl1bQ0BASF0oW0NIMl1bQ0gyXTMpW0NIMl1bQ0BASF0oW09IXSlbQ0BASF0zW0NIM10=

>  <s_glide_docking_method>  (1) 
confgen

>  <s_i_glide_gridfile>  (1) 
gpcr_drd2_6luq_protein_autoprepared_prepared

>  <s_lp_Force_Field>  (1) 
S-OPLS

>  <s_lp_Variant>  (1) 
DiffSBDD_37_num_sample_100-1

>  <s_m_source_file>  (1) 
generated__ligand_DiffSBDD_2026-05-06_prepared.sdf

>  <GenAI_Model>  (1) 
DiffSBDD

>  <Protein>  (1) 
generic_title2

$$$$
DiffSBDD_40_num_sample_100
     RDKit          3D

  0  0  0  0  0  0  0  0  0  0999 V3000
M  V30 BEGIN CTAB
M  V30 COUNTS 63 67 0 0 1
M  V30 BEGIN ATOM
M  V30 1 F 12.120749 7.850551 -3.298858 0
M  V30 2 C 9.362689 6.549380 -11.564246 0 CFG=2
M  V30 3 O 6.045508 6.130186 -14.308889 0
M  V30 4 C 8.408261 1.731766 -16.380570 0
M  V30 5 C 10.235505 5.951436 -12.642528 0
M  V30 6 C 6.800169 6.284402 -13.349570 0
M  V30 7 C 7.944755 6.029120 -11.346762 0 CFG=1
M  V30 8 C 10.402606 7.317097 -7.967417 0
M  V30 9 C 5.882672 -0.440387 -15.896371 0
M  V30 10 F 13.192069 9.369187 -4.391787 0
M  V30 11 O 7.900374 4.129785 -12.915646 0
M  V30 12 C 7.623051 3.683047 -17.747058 0
M  V30 13 F 11.191560 9.769821 -3.725408 0
M  V30 14 O 4.235642 0.439676 -14.291111 0
M  V30 15 C 11.722921 8.968284 -6.721147 0
M  V30 16 N 9.832465 6.794934 -9.197729 0
M  V30 17 N 7.694109 1.179857 -15.196737 0 CFG=2 CHG=1
M  V30 18 C 11.993233 8.822876 -4.203440 0
M  V30 19 C 10.632113 7.135349 -5.539252 0
M  V30 20 C 8.200734 7.456836 -11.910137 0 CFG=2
M  V30 21 C 10.189500 7.169782 -10.453538 0
M  V30 22 C 5.810651 4.608166 -11.701773 0
M  V30 23 C 7.087459 5.173211 -12.350235 0 CFG=2
M  V30 24 O 11.117657 7.931348 -10.691680 0
M  V30 25 C 6.277607 0.967499 -15.522797 0 CFG=2
M  V30 26 C 8.063314 3.198878 -16.573568 0
M  V30 27 C 8.240978 4.077635 -15.351012 0
M  V30 28 C 5.578293 0.094760 -14.514116 0 CFG=2
M  V30 29 C 10.111608 6.653094 -6.758390 0
M  V30 30 C 7.502615 3.477443 -14.128096 0 CFG=1
M  V30 31 C 11.216919 8.488750 -7.943707 0
M  V30 32 C 7.854984 1.984452 -13.945108 0
M  V30 33 N 7.434559 7.390311 -13.079309 0
M  V30 34 C 11.434818 8.295353 -5.519855 0
M  V30 35 H 9.486182 1.633591 -16.291349 0
M  V30 36 H 8.140644 1.156719 -17.268590 0
M  V30 37 H 9.679748 5.773597 -13.558742 0
M  V30 38 H 11.069947 6.605838 -12.895427 0
M  V30 39 H 10.634528 4.999742 -12.291761 0
M  V30 40 H 7.617955 5.936849 -10.314618 0
M  V30 41 H 6.681085 -1.165547 -16.008089 0
M  V30 42 H 5.044535 -0.570231 -16.578351 0
M  V30 43 H 7.378951 4.729810 -17.862272 0
M  V30 44 H 7.500571 3.038320 -18.605958 0
M  V30 45 H 3.793473 -0.331485 -13.963439 0
M  V30 46 H 12.333487 9.857657 -6.703693 0
M  V30 47 H 9.101905 6.104931 -9.102156 0
M  V30 48 H 10.407532 6.617179 -4.617813 0
M  V30 49 H 8.029892 8.323219 -11.272679 0
M  V30 50 H 5.201040 5.404780 -11.270616 0
M  V30 51 H 5.187101 4.075340 -12.419275 0
M  V30 52 H 6.053466 3.914723 -10.896643 0
M  V30 53 H 5.834989 1.766027 -16.101485 0
M  V30 54 H 9.307157 4.169303 -15.146375 0
M  V30 55 H 7.904037 5.085392 -15.582253 0
M  V30 56 H 6.092798 -0.335731 -13.656584 0
M  V30 57 H 9.489301 5.770371 -6.764723 0
M  V30 58 H 6.425173 3.547459 -14.279860 0
M  V30 59 H 11.441649 9.031554 -8.839357 0
M  V30 60 H 7.245935 1.576162 -13.138902 0
M  V30 61 H 8.873085 1.878008 -13.572405 0
M  V30 62 H 7.341001 8.205324 -13.666386 0
M  V30 63 H 8.075911 0.263361 -15.009258 0
M  V30 END ATOM
M  V30 BEGIN BOND
M  V30 1 1 2 5 CFG=3
M  V30 2 2 6 3
M  V30 3 1 7 2
M  V30 4 1 16 8
M  V30 5 1 17 4
M  V30 6 1 18 1
M  V30 7 1 18 10
M  V30 8 1 18 13
M  V30 9 1 20 2
M  V30 10 1 20 7
M  V30 11 1 21 2
M  V30 12 1 21 16
M  V30 13 1 23 6
M  V30 14 1 23 7
M  V30 15 1 23 11 CFG=3
M  V30 16 1 23 22
M  V30 17 2 24 21
M  V30 18 1 25 9
M  V30 19 1 25 17
M  V30 20 1 26 4
M  V30 21 2 26 12
M  V30 22 1 27 26
M  V30 23 1 28 9
M  V30 24 1 28 14
M  V30 25 1 28 25
M  V30 26 1 29 8
M  V30 27 2 29 19
M  V30 28 1 30 11
M  V30 29 1 30 27
M  V30 30 2 31 8
M  V30 31 1 31 15
M  V30 32 1 32 17
M  V30 33 1 32 30
M  V30 34 1 33 6
M  V30 35 1 33 20
M  V30 36 2 34 15
M  V30 37 1 34 18
M  V30 38 1 34 19
M  V30 39 1 35 4
M  V30 40 1 36 4
M  V30 41 1 37 5
M  V30 42 1 38 5
M  V30 43 1 39 5
M  V30 44 1 7 40 CFG=1
M  V30 45 1 41 9
M  V30 46 1 42 9
M  V30 47 1 43 12
M  V30 48 1 44 12
M  V30 49 1 45 14
M  V30 50 1 46 15
M  V30 51 1 47 16
M  V30 52 1 48 19
M  V30 53 1 20 49 CFG=1
M  V30 54 1 50 22
M  V30 55 1 51 22
M  V30 56 1 52 22
M  V30 57 1 25 53 CFG=3
M  V30 58 1 54 27
M  V30 59 1 55 27
M  V30 60 1 28 56 CFG=1
M  V30 61 1 57 29
M  V30 62 1 30 58 CFG=3
M  V30 63 1 59 31
M  V30 64 1 60 32
M  V30 65 1 61 32
M  V30 66 1 62 33
M  V30 67 1 17 63 CFG=1
M  V30 END BOND
M  V30 END CTAB
M  END
>  <i_epik_Tot_Q>  (1) 
1

>  <i_epik_Tot_abs_Q>  (1) 
1

>  <i_i_glide_confnum>  (1) 
7

>  <i_i_glide_lignum>  (1) 
71

>  <i_i_glide_posenum>  (1) 
348

>  <i_i_glide_rotatable_bonds>  (1) 
8

>  <i_lp_mmshare_version>  (1) 
72125

>  <i_m_source_file_index>  (1) 
41

>  <i_f3d_flags>  (1) 
0

>  <num_sample>  (1) 
100

>  <b_lp_Chiralities_Consistent>  (1) 
1

>  <r_epik_Charging_Adjusted_Penalty>  (1) 
0.4978346940249993

>  <r_epik_Ionization_Penalty>  (1) 
0.24891983878036394

>  <r_epik_Ionization_Penalty_Charging>  (1) 
0.24891734701249965

>  <r_epik_Ionization_Penalty_Neutral>  (1) 
2.4917678643056738e-06

>  <r_epik_State_Penalty>  (1) 
0.24891734701249965

>  <r_glide_ring_energy>  (1) 
0

>  <r_i_docking_score>  (1) 
-6.5461078001500308

>  <r_i_glide_ecoul>  (1) 
-5.3377806454556627

>  <r_i_glide_eff_state_penalty>  (1) 
0.24891734701249965

>  <r_i_glide_einternal>  (1) 
5.7048026720890412

>  <r_i_glide_emodel>  (1) 
-63.303651475287694

>  <r_i_glide_emodel_strain>  (1) 
1.2002780438585035

>  <r_i_glide_energy>  (1) 
-45.083495825408363

>  <r_i_glide_erotb>  (1) 
0.52699016033767154

>  <r_i_glide_esite>  (1) 
-0.16888823903407388

>  <r_i_glide_evdw>  (1) 
-39.745715179952697

>  <r_i_glide_gscore>  (1) 
-6.79502514716253

>  <r_i_glide_gscore_strain>  (1) 
0

>  <r_i_glide_hbond>  (1) 
0

>  <r_i_glide_ligand_efficiency>  (1) 
-0.19253258235735385

>  <r_i_glide_ligand_efficiency_ln>  (1) 
-1.4462188251575796

>  <r_i_glide_ligand_efficiency_sa>  (1) 
-0.62373082593531259

>  <r_i_glide_lipo>  (1) 
-2.2868506449435229

>  <r_i_glide_metal>  (1) 
-0

>  <r_i_glide_rewards>  (1) 
-2.0783235677066196

>  <r_lp_Energy>  (1) 
40.196967999999998

>  <s_epik_cmdline>  (1) 
J2VwaWtfcHl0aG9uJywgJy1waHQnLCAnMS4wJywgJy1waCcsICc3LjQnLCAnLXRuJywgJzgnLCAnLW1hJywgJzUwMCcsICctaW1hZScsICc8aW5maWxlLm1hZT4nLCAnLW9tYWUnLCAnPG91dGZpbGUubWFlPic=

>  <s_epik_input>  (1) 
RkMoRikoRiljKFtjSF1bY0hdMSlbY0hdW2NIXWMxW05IXUMoPU8pW0NAXTIoW0NIM10pW0NASF0oW0NASF0yMylbTkhdQyg9TylbQ0BAXTMoW0NIM10pT1tDQEhdKFtDSDJdNClbQ0gyXUMoPVtDSDJdKVtDSDJdTjRbQ0BIXTVbQ0gyXVtDQEBIXTVbT0hd

>  <s_glide_docking_method>  (1) 
confgen

>  <s_i_glide_gridfile>  (1) 
gpcr_drd2_6luq_protein_autoprepared_prepared

>  <s_lp_Force_Field>  (1) 
S-OPLS

>  <s_lp_Variant>  (1) 
DiffSBDD_40_num_sample_100-2

>  <s_m_source_file>  (1) 
generated__ligand_DiffSBDD_2026-05-06_prepared.sdf

>  <GenAI_Model>  (1) 
DiffSBDD

>  <Protein>  (1) 
generic_title2

$$$$
DiffSBDD_21_num_sample_100
     RDKit          3D

  0  0  0  0  0  0  0  0  0  0999 V3000
M  V30 BEGIN CTAB
M  V30 COUNTS 68 72 0 0 1
M  V30 BEGIN ATOM
M  V30 1 C 6.234674 8.180514 -15.764154 0
M  V30 2 C 7.675020 5.066566 -13.535184 0
M  V30 3 C 11.660428 9.203505 -5.769515 0
M  V30 4 C 7.300715 5.409118 -17.633936 0 CFG=2
M  V30 5 C 9.440691 8.569302 -8.448304 0
M  V30 6 C 9.101376 6.203848 -11.896724 0
M  V30 7 C 8.359808 5.198551 -16.526887 0
M  V30 8 O 7.482073 2.611764 -13.808374 0
M  V30 9 C 11.065244 6.850811 -6.042288 0
M  V30 10 C 7.133241 4.080706 -18.425152 0
M  V30 11 C 6.796591 6.170198 -13.520005 0
M  V30 12 O 10.234820 6.203484 -11.118417 0
M  V30 13 C 8.299686 3.891901 -15.699605 0
M  V30 14 F 11.801784 10.446694 -6.281845 0
M  V30 15 C 10.693963 7.371444 -10.441849 0
M  V30 16 C 5.317630 7.228588 -19.261861 0
M  V30 17 C 8.217736 7.296978 -11.891680 0
M  V30 18 C 11.835014 7.672692 -3.880423 0
M  V30 19 F 5.430212 8.434261 -18.719953 0
M  V30 20 S 7.986767 6.569294 -18.846671 0
M  V30 21 C 5.555257 6.177119 -14.382932 0
M  V30 22 C 7.070529 7.275843 -12.686947 0
M  V30 23 O 9.672498 4.028497 -12.690755 0
M  V30 24 C 7.395155 3.866237 -14.453985 0 CFG=2
M  V30 25 F 12.143569 7.444527 -2.580130 0
M  V30 26 C 11.970045 8.964882 -4.416382 0
M  V30 27 C 6.612093 6.866073 -19.991803 0
M  V30 28 F 4.356093 7.305007 -20.180257 0
M  V30 29 C 4.899053 6.181246 -18.214013 0
M  V30 30 C 11.381539 6.618902 -4.690313 0
M  V30 31 C 10.874569 8.405815 -8.042436 0 CFG=1
M  V30 32 C 5.922581 5.893242 -17.067734 0 CFG=2
M  V30 33 C 5.649543 6.795031 -15.805086 0 CFG=2
M  V30 34 C 11.204337 8.145499 -6.597083 0
M  V30 35 C 10.232745 7.404947 -8.996094 0 CFG=1
M  V30 36 C 8.825081 5.085517 -12.706550 0
M  V30 37 H 7.060562 8.281238 -15.067216 0
M  V30 38 H 6.634440 8.512239 -16.691321 0
M  V30 39 H 5.464618 8.901547 -15.491980 0
M  V30 40 H 9.185578 9.353504 -9.158029 0
M  V30 41 H 8.678008 8.344439 -7.705949 0
M  V30 42 H 8.417179 6.070371 -15.877110 0
M  V30 43 H 9.331248 5.177777 -17.022263 0
M  V30 44 H 7.233912 1.933800 -14.417842 0
M  V30 45 H 10.720927 6.031766 -6.654044 0
M  V30 46 H 6.628032 3.306262 -17.851444 0
M  V30 47 H 6.555109 4.194949 -19.337940 0
M  V30 48 H 8.101428 3.683612 -18.729242 0
M  V30 49 H 9.317838 3.769310 -15.363630 0
M  V30 50 H 8.117878 3.013755 -16.313223 0
M  V30 51 H 11.782183 7.316685 -10.434366 0
M  V30 52 H 10.474214 8.301629 -10.959209 0
M  V30 53 H 8.407633 8.151984 -11.263376 0
M  V30 54 H 4.982132 5.257288 -14.329332 0
M  V30 55 H 4.945149 6.860123 -13.803931 0
M  V30 56 H 6.395720 8.111427 -12.660392 0
M  V30 57 H 10.505746 4.237448 -12.295298 0
M  V30 58 H 6.371973 3.852498 -14.802750 0
M  V30 59 H 12.319245 9.771762 -3.793296 0
M  V30 60 H 6.893068 7.671244 -20.671760 0
M  V30 61 H 6.468841 5.984883 -20.615175 0
M  V30 62 H 3.921792 6.462898 -17.821531 0
M  V30 63 H 4.703915 5.265557 -18.763403 0
M  V30 64 H 11.274531 5.629553 -4.274625 0
M  V30 65 H 11.590013 9.106786 -8.472147 0
M  V30 66 H 5.704054 4.969310 -16.580826 0
M  V30 67 H 4.594964 7.018837 -15.937158 0
M  V30 68 H 9.959163 6.427127 -8.608069 0
M  V30 END ATOM
M  V30 BEGIN BOND
M  V30 1 1 7 4
M  V30 2 1 4 10 CFG=3
M  V30 3 2 11 2
M  V30 4 1 12 6
M  V30 5 1 13 7
M  V30 6 1 14 3
M  V30 7 1 15 12
M  V30 8 1 17 6
M  V30 9 1 19 16
M  V30 10 1 20 4
M  V30 11 1 21 11
M  V30 12 1 22 11
M  V30 13 2 22 17
M  V30 14 1 24 2
M  V30 15 1 24 8
M  V30 16 1 24 13
M  V30 17 1 25 18
M  V30 18 1 26 3
M  V30 19 2 26 18
M  V30 20 1 27 16
M  V30 21 1 27 20
M  V30 22 1 28 16
M  V30 23 1 29 16
M  V30 24 2 30 9
M  V30 25 1 30 18
M  V30 26 1 31 5
M  V30 27 1 32 4
M  V30 28 1 32 29
M  V30 29 1 33 1
M  V30 30 1 33 21
M  V30 31 1 33 32
M  V30 32 2 34 3
M  V30 33 1 34 9
M  V30 34 1 34 31
M  V30 35 1 35 5
M  V30 36 1 35 15
M  V30 37 1 35 31
M  V30 38 1 36 2
M  V30 39 2 36 6
M  V30 40 1 36 23
M  V30 41 1 37 1
M  V30 42 1 38 1
M  V30 43 1 39 1
M  V30 44 1 40 5
M  V30 45 1 41 5
M  V30 46 1 42 7
M  V30 47 1 43 7
M  V30 48 1 44 8
M  V30 49 1 45 9
M  V30 50 1 46 10
M  V30 51 1 47 10
M  V30 52 1 48 10
M  V30 53 1 49 13
M  V30 54 1 50 13
M  V30 55 1 51 15
M  V30 56 1 52 15
M  V30 57 1 53 17
M  V30 58 1 54 21
M  V30 59 1 55 21
M  V30 60 1 56 22
M  V30 61 1 57 23
M  V30 62 1 24 58 CFG=3
M  V30 63 1 59 26
M  V30 64 1 60 27
M  V30 65 1 61 27
M  V30 66 1 62 29
M  V30 67 1 63 29
M  V30 68 1 64 30
M  V30 69 1 31 65 CFG=3
M  V30 70 1 32 66 CFG=1
M  V30 71 1 33 67 CFG=3
M  V30 72 1 35 68 CFG=1
M  V30 END BOND
M  V30 END CTAB
M  END
>  <i_epik_Tot_Q>  (1) 
0

>  <i_epik_Tot_abs_Q>  (1) 
0

>  <i_i_glide_confnum>  (1) 
35

>  <i_i_glide_lignum>  (1) 
34

>  <i_i_glide_posenum>  (1) 
271

>  <i_i_glide_rotatable_bonds>  (1) 
6

>  <i_lp_mmshare_version>  (1) 
72125

>  <i_m_source_file_index>  (1) 
22

>  <i_f3d_flags>  (1) 
0

>  <num_sample>  (1) 
100

>  <b_lp_Chiralities_Consistent>  (1) 
1

>  <r_epik_Charging_Adjusted_Penalty>  (1) 
0

>  <r_epik_Ionization_Penalty>  (1) 
0.0009051571753108589

>  <r_epik_Ionization_Penalty_Charging>  (1) 
0

>  <r_epik_Ionization_Penalty_Neutral>  (1) 
0.0009051571753108589

>  <r_epik_State_Penalty>  (1) 
-0

>  <r_glide_ring_energy>  (1) 
0

>  <r_i_docking_score>  (1) 
-6.517002028049582

>  <r_i_glide_ecoul>  (1) 
-0.43232931178294831

>  <r_i_glide_eff_state_penalty>  (1) 
-0

>  <r_i_glide_einternal>  (1) 
5.200695796388521

>  <r_i_glide_emodel>  (1) 
-37.145804385984022

>  <r_i_glide_emodel_strain>  (1) 
2.2565047690349758

>  <r_i_glide_energy>  (1) 
-22.98853371804848

>  <r_i_glide_erotb>  (1) 
0.29906164395455315

>  <r_i_glide_esite>  (1) 
0

>  <r_i_glide_evdw>  (1) 
-22.556204406265532

>  <r_i_glide_gscore>  (1) 
-6.517002028049582

>  <r_i_glide_gscore_strain>  (1) 
0

>  <r_i_glide_hbond>  (1) 
-0.073938208280087694

>  <r_i_glide_ligand_efficiency>  (1) 
-0.18102783411248838

>  <r_i_glide_ligand_efficiency_ln>  (1) 
-1.4218337734729065

>  <r_i_glide_ligand_efficiency_sa>  (1) 
-0.59774073826440177

>  <r_i_glide_lipo>  (1) 
-3.7873561873353982

>  <r_i_glide_metal>  (1) 
-0

>  <r_i_glide_rewards>  (1) 
-1.7621096593079297

>  <r_lp_Energy>  (1) 
74.349186000000003

>  <r_lp_tautomer_probability>  (1) 
1

>  <s_epik_cmdline>  (1) 
J2VwaWtfcHl0aG9uJywgJy1waHQnLCAnMS4wJywgJy1waCcsICc3LjQnLCAnLXRuJywgJzgnLCAnLW1hJywgJzUwMCcsICctaW1hZScsICc8aW5maWxlLm1hZT4nLCAnLW9tYWUnLCAnPG91dGZpbGUubWFlPic=

>  <s_epik_input>  (1) 
UzFbQ0gyXUMoRikoRilbQ0gyXVtDQEhdKFtDQEBdMTJbQ0gzXSlbQ0BIXShbQ0gzXSlbQ0gyXWMzYyhbQ0BIXShbT0hdKVtDSDJdW0NIMl0yKWMoW09IXSljKFtjSF1bY0hdMylPW0NIMl1bQ0BASF00W0NIMl1bQ0hdNGM1W2NIXVtjSF1jKEYpW2NIXWM1Rg==

>  <s_glide_docking_method>  (1) 
confgen

>  <s_i_glide_gridfile>  (1) 
gpcr_drd2_6luq_protein_autoprepared_prepared

>  <s_lp_Force_Field>  (1) 
S-OPLS

>  <s_lp_Variant>  (1) 
DiffSBDD_21_num_sample_100-2

>  <s_m_source_file>  (1) 
generated__ligand_DiffSBDD_2026-05-06_prepared.sdf

>  <GenAI_Model>  (1) 
DiffSBDD

>  <Protein>  (1) 
generic_title2

$$$$
DiffSBDD_31_num_sample_100
     RDKit          3D

  0  0  0  0  0  0  0  0  0  0999 V3000
M  V30 BEGIN CTAB
M  V30 COUNTS 50 53 0 0 1
M  V30 BEGIN ATOM
M  V30 1 C 8.860844 5.659456 -9.746902 0
M  V30 2 C 10.331698 7.394943 -8.646887 0
M  V30 3 C 11.163236 8.010478 -6.481219 0
M  V30 4 O 13.034791 8.481340 -1.202112 0
M  V30 5 C 6.779893 6.064060 -14.886836 0
M  V30 6 C 8.076041 5.414270 -14.378809 0 CFG=1
M  V30 7 C 11.434836 7.032480 -4.192679 0
M  V30 8 N 9.727340 6.837092 -9.758036 0
M  V30 9 C 11.609289 8.104116 -5.102966 0
M  V30 10 O 11.713447 6.169248 -1.967268 0
M  V30 11 S 10.231510 6.638584 -7.057314 0
M  V30 12 C 11.902482 7.165691 -2.865385 0
M  V30 13 C 9.305712 4.585319 -10.738578 0
M  V30 14 C 8.067466 5.398545 -12.834087 0 CFG=1
M  V30 15 C 5.571139 5.226106 -12.770489 0 CFG=2
M  V30 16 N 11.434764 8.916667 -7.425075 0
M  V30 17 Cl 5.434832 6.826826 -11.976013 0
M  V30 18 C 9.787720 7.405321 -11.098096 0
M  V30 19 C 6.861918 4.573107 -12.315262 0
M  V30 20 N 11.023374 8.534430 -8.670327 0
M  V30 21 C 12.564064 8.339291 -2.473684 0
M  V30 22 C 12.266427 9.267162 -4.687355 0
M  V30 23 C 12.746719 9.369297 -3.387578 0
M  V30 24 C 9.434862 5.110536 -12.175904 0
M  V30 25 C 5.551786 5.354450 -14.296241 0
M  V30 26 C 10.301101 6.392355 -12.127944 0
M  V30 27 Cl 8.234575 3.774040 -15.064111 0
M  V30 28 H 8.788938 5.218635 -8.754469 0
M  V30 29 H 7.851942 5.986314 -9.989659 0
M  V30 30 H 13.434651 9.331295 -1.070709 0
M  V30 31 H 6.743926 6.031508 -15.975978 0
M  V30 32 H 6.762047 7.120029 -14.611430 0
M  V30 33 H 8.927314 5.969315 -14.758552 0
M  V30 34 H 10.936038 6.125646 -4.501072 0
M  V30 35 H 11.267867 5.402305 -2.299502 0
M  V30 36 H 10.234826 4.169319 -10.402040 0
M  V30 37 H 8.637365 3.740126 -10.691673 0
M  V30 38 H 7.858120 6.425744 -12.562973 0
M  V30 39 H 4.735033 4.611127 -12.431225 0
M  V30 40 H 8.807534 7.806508 -11.353623 0
M  V30 41 H 10.454513 8.266188 -11.101125 0
M  V30 42 H 6.918491 3.537022 -12.653276 0
M  V30 43 H 6.788361 4.537934 -11.231357 0
M  V30 44 H 12.420387 10.081461 -5.380292 0
M  V30 45 H 13.263759 10.234686 -3.091677 0
M  V30 46 H 9.942334 4.344214 -12.760634 0
M  V30 47 H 5.532336 4.343351 -14.691521 0
M  V30 48 H 4.634840 5.814083 -14.641593 0
M  V30 49 H 11.338417 6.169273 -11.891677 0
M  V30 50 H 10.348338 6.871802 -13.091663 0
M  V30 END ATOM
M  V30 BEGIN BOND
M  V30 1 1 6 5
M  V30 2 1 8 1
M  V30 3 1 8 2
M  V30 4 1 9 3
M  V30 5 2 9 7
M  V30 6 1 11 2
M  V30 7 1 11 3
M  V30 8 1 12 7
M  V30 9 1 12 10
M  V30 10 1 13 1
M  V30 11 1 14 6
M  V30 12 2 16 3
M  V30 13 1 17 15
M  V30 14 1 18 8
M  V30 15 1 19 14
M  V30 16 1 19 15
M  V30 17 2 20 2
M  V30 18 1 20 16
M  V30 19 1 21 4
M  V30 20 2 21 12
M  V30 21 1 22 9
M  V30 22 1 23 21
M  V30 23 2 23 22
M  V30 24 1 24 13
M  V30 25 1 24 14
M  V30 26 1 25 5
M  V30 27 1 25 15
M  V30 28 1 26 18
M  V30 29 1 26 24
M  V30 30 1 27 6
M  V30 31 1 28 1
M  V30 32 1 29 1
M  V30 33 1 30 4
M  V30 34 1 31 5
M  V30 35 1 32 5
M  V30 36 1 6 33 CFG=1
M  V30 37 1 34 7
M  V30 38 1 35 10
M  V30 39 1 36 13
M  V30 40 1 37 13
M  V30 41 1 14 38 CFG=1
M  V30 42 1 15 39 CFG=1
M  V30 43 1 40 18
M  V30 44 1 41 18
M  V30 45 1 42 19
M  V30 46 1 43 19
M  V30 47 1 44 22
M  V30 48 1 45 23
M  V30 49 1 46 24
M  V30 50 1 47 25
M  V30 51 1 48 25
M  V30 52 1 49 26
M  V30 53 1 50 26
M  V30 END BOND
M  V30 END CTAB
M  END
>  <i_epik_Tot_Q>  (1) 
0

>  <i_epik_Tot_abs_Q>  (1) 
0

>  <i_i_glide_confnum>  (1) 
34

>  <i_i_glide_lignum>  (1) 
56

>  <i_i_glide_posenum>  (1) 
236

>  <i_i_glide_rotatable_bonds>  (1) 
5

>  <i_lp_mmshare_version>  (1) 
72125

>  <i_m_source_file_index>  (1) 
32

>  <i_f3d_flags>  (1) 
0

>  <num_sample>  (1) 
100

>  <b_lp_Chiralities_Consistent>  (1) 
1

>  <r_epik_Charging_Adjusted_Penalty>  (1) 
0.030402742638392096

>  <r_epik_Ionization_Penalty>  (1) 
0.030794834145842404

>  <r_epik_Ionization_Penalty_Charging>  (1) 
0

>  <r_epik_Ionization_Penalty_Neutral>  (1) 
0.030794834145842404

>  <r_epik_State_Penalty>  (1) 
0.030402742638392096

>  <r_glide_ring_energy>  (1) 
1.8967887167309052

>  <r_i_docking_score>  (1) 
-6.5133706823815043

>  <r_i_glide_ecoul>  (1) 
-5.6758236152464692

>  <r_i_glide_eff_state_penalty>  (1) 
0.030402742638392096

>  <r_i_glide_einternal>  (1) 
2.7251163268227323

>  <r_i_glide_emodel>  (1) 
-42.809829398356541

>  <r_i_glide_emodel_strain>  (1) 
0.6326392033125785

>  <r_i_glide_energy>  (1) 
-33.990365089561344

>  <r_i_glide_erotb>  (1) 
0.32471647886420552

>  <r_i_glide_esite>  (1) 
-0.097539293381303405

>  <r_i_glide_evdw>  (1) 
-28.314541474314876

>  <r_i_glide_gscore>  (1) 
-6.5437734250198965

>  <r_i_glide_gscore_strain>  (1) 
0

>  <r_i_glide_hbond>  (1) 
-0.32000000000000001

>  <r_i_glide_ligand_efficiency>  (1) 
-0.24123595119931499

>  <r_i_glide_ligand_efficiency_ln>  (1) 
-1.5162053135504099

>  <r_i_glide_ligand_efficiency_sa>  (1) 
-0.72370785359794509

>  <r_i_glide_lipo>  (1) 
-3.2183508204973696

>  <r_i_glide_metal>  (1) 
-0

>  <r_i_glide_rewards>  (1) 
-0.9654991740027139

>  <r_lp_Energy>  (1) 
30.5136

>  <r_lp_tautomer_probability>  (1) 
0.99999999999977596

>  <s_epik_cmdline>  (1) 
J2VwaWtfcHl0aG9uJywgJy1waHQnLCAnMS4wJywgJy1waCcsICc3LjQnLCAnLXRuJywgJzgnLCAnLW1hJywgJzUwMCcsICctaW1hZScsICc8aW5maWxlLm1hZT4nLCAnLW9tYWUnLCAnPG91dGZpbGUubWFlPic=

>  <s_epik_input>  (1) 
Q2xbQ0BIXTFbQ0gyXVtDSDJdW0NASF0oQ2wpW0NIMl1bQ0BIXTFbQ0hdKFtDSDJdW0NIMl0yKVtDSDJdW0NIMl1OMmMzc2Mobm4zKS1jNFtjSF1jKFtPSF0pYyhbT0hdKVtjSF1bY0hdNA==

>  <s_glide_docking_method>  (1) 
confgen

>  <s_i_glide_gridfile>  (1) 
gpcr_drd2_6luq_protein_autoprepared_prepared

>  <s_lp_Force_Field>  (1) 
S-OPLS

>  <s_lp_Variant>  (1) 
DiffSBDD_31_num_sample_100-1

>  <s_m_source_file>  (1) 
generated__ligand_DiffSBDD_2026-05-06_prepared.sdf

>  <GenAI_Model>  (1) 
DiffSBDD

>  <Protein>  (1) 
generic_title2

$$$$
DiffSBDD_48_num_sample_100
     RDKit          3D

  0  0  0  0  0  0  0  0  0  0999 V3000
M  V30 BEGIN CTAB
M  V30 COUNTS 51 53 0 0 1
M  V30 BEGIN ATOM
M  V30 1 O 12.634839 7.350253 -2.046048 0
M  V30 2 O 7.331651 5.823313 -15.237443 0
M  V30 3 C 10.552182 6.476733 -6.435931 0
M  V30 4 C 6.292957 6.264087 -14.383354 0
M  V30 5 C 7.588369 5.466689 -12.315995 0
M  V30 6 N 10.557694 7.528506 -7.548903 0
M  V30 7 C 6.784221 6.618855 -12.957996 0 CFG=2
M  V30 8 N 9.615395 7.385709 -8.579254 0
M  V30 9 C 11.750532 9.595855 -4.867964 0
M  V30 10 C 5.568497 6.992366 -12.098021 0
M  V30 11 C 9.353553 6.490635 -10.872612 0
M  V30 12 C 13.034844 8.311751 -1.091664 0
M  V30 13 C 8.247784 4.569300 -10.114037 0
M  V30 14 C 12.171617 7.795708 -3.257969 0
M  V30 15 C 11.214576 8.640019 -5.736452 0
M  V30 16 C 12.234889 9.177618 -3.613250 0
M  V30 17 C 9.182993 4.972374 -8.977140 0
M  V30 18 C 9.872755 6.260470 -9.454171 0 CFG=2
M  V30 19 O 7.591810 7.769304 -13.062835 0
M  V30 20 N 8.069649 5.769298 -10.944065 0 CFG=2 CHG=1
M  V30 21 C 11.143522 7.340891 -5.403384 0
M  V30 22 C 11.613021 6.872181 -4.169784 0
M  V30 23 C 10.695472 8.956009 -7.066944 0
M  V30 24 H 7.643770 4.980896 -14.947320 0
M  V30 25 H 9.537454 6.185197 -6.163263 0
M  V30 26 H 11.172251 5.619143 -6.695902 0
M  V30 27 H 5.810213 7.127216 -14.844892 0
M  V30 28 H 5.539306 5.476452 -14.339190 0
M  V30 29 H 6.937259 4.591946 -12.271124 0
M  V30 30 H 8.433955 5.175406 -12.941270 0
M  V30 31 H 8.664129 7.369340 -8.208123 0
M  V30 32 H 11.793910 10.635750 -5.155237 0
M  V30 33 H 4.968289 6.107134 -11.906978 0
M  V30 34 H 5.834763 7.392782 -11.125406 0
M  V30 35 H 4.950592 7.745878 -12.586653 0
M  V30 36 H 10.059976 6.062477 -11.586173 0
M  V30 37 H 9.251911 7.550927 -11.104912 0
M  V30 38 H 13.434848 7.769301 -0.242092 0
M  V30 39 H 13.834860 8.954204 -1.451404 0
M  V30 40 H 12.195097 8.923968 -0.758349 0
M  V30 41 H 7.292021 4.185992 -9.753252 0
M  V30 42 H 8.726892 3.789595 -10.710178 0
M  V30 43 H 12.648199 9.903453 -2.934206 0
M  V30 44 H 8.596092 5.147915 -8.074125 0
M  V30 45 H 9.897846 4.181784 -8.748664 0
M  V30 46 H 10.954210 6.169305 -9.491633 0
M  V30 47 H 7.584074 8.222066 -12.231448 0
M  V30 48 H 11.551699 5.822848 -3.920735 0
M  V30 49 H 11.394728 9.520400 -7.686492 0
M  V30 50 H 9.701759 9.388205 -7.001931 0
M  V30 51 H 7.398920 6.366584 -10.462152 0
M  V30 END ATOM
M  V30 BEGIN BOND
M  V30 1 1 4 2
M  V30 2 1 6 3
M  V30 3 1 7 4
M  V30 4 1 7 5
M  V30 5 1 8 6
M  V30 6 1 10 7
M  V30 7 1 12 1
M  V30 8 1 14 1
M  V30 9 1 15 9
M  V30 10 2 16 9
M  V30 11 1 16 14
M  V30 12 1 17 13
M  V30 13 1 18 8
M  V30 14 1 18 11
M  V30 15 1 18 17
M  V30 16 1 7 19 CFG=3
M  V30 17 1 20 5
M  V30 18 1 20 11
M  V30 19 1 20 13
M  V30 20 1 21 3
M  V30 21 2 21 15
M  V30 22 2 22 14
M  V30 23 1 22 21
M  V30 24 1 23 6
M  V30 25 1 23 15
M  V30 26 1 24 2
M  V30 27 1 25 3
M  V30 28 1 26 3
M  V30 29 1 27 4
M  V30 30 1 28 4
M  V30 31 1 29 5
M  V30 32 1 30 5
M  V30 33 1 31 8
M  V30 34 1 32 9
M  V30 35 1 33 10
M  V30 36 1 34 10
M  V30 37 1 35 10
M  V30 38 1 36 11
M  V30 39 1 37 11
M  V30 40 1 38 12
M  V30 41 1 39 12
M  V30 42 1 40 12
M  V30 43 1 41 13
M  V30 44 1 42 13
M  V30 45 1 43 16
M  V30 46 1 44 17
M  V30 47 1 45 17
M  V30 48 1 18 46 CFG=3
M  V30 49 1 47 19
M  V30 50 1 48 22
M  V30 51 1 49 23
M  V30 52 1 50 23
M  V30 53 1 20 51 CFG=1
M  V30 END BOND
M  V30 END CTAB
M  END
>  <i_epik_Tot_Q>  (1) 
1

>  <i_epik_Tot_abs_Q>  (1) 
1

>  <i_i_glide_confnum>  (1) 
4

>  <i_i_glide_lignum>  (1) 
90

>  <i_i_glide_posenum>  (1) 
161

>  <i_i_glide_rotatable_bonds>  (1) 
8

>  <i_lp_mmshare_version>  (1) 
72125

>  <i_m_source_file_index>  (1) 
49

>  <i_f3d_flags>  (1) 
0

>  <num_sample>  (1) 
100

>  <b_lp_Chiralities_Consistent>  (1) 
1

>  <r_epik_Charging_Adjusted_Penalty>  (1) 
0.014070542232369893

>  <r_epik_Ionization_Penalty>  (1) 
0.01444304470814459

>  <r_epik_Ionization_Penalty_Charging>  (1) 
0.014070542232369893

>  <r_epik_Ionization_Penalty_Neutral>  (1) 
0.00037250247577469821

>  <r_epik_State_Penalty>  (1) 
-0

>  <r_glide_ring_energy>  (1) 
0

>  <r_i_docking_score>  (1) 
-6.4950591384768224

>  <r_i_glide_ecoul>  (1) 
-7.4403392907879162

>  <r_i_glide_eff_state_penalty>  (1) 
-0

>  <r_i_glide_einternal>  (1) 
6.3264418713985524

>  <r_i_glide_emodel>  (1) 
-55.632594094596918

>  <r_i_glide_emodel_strain>  (1) 
0.41736390872874551

>  <r_i_glide_energy>  (1) 
-38.297621985420314

>  <r_i_glide_erotb>  (1) 
0.89938055447957976

>  <r_i_glide_esite>  (1) 
-0.18919483897676731

>  <r_i_glide_evdw>  (1) 
-30.857282694632396

>  <r_i_glide_gscore>  (1) 
-6.4950591384768224

>  <r_i_glide_gscore_strain>  (1) 
0

>  <r_i_glide_hbond>  (1) 
-0.25799575818664772

>  <r_i_glide_ligand_efficiency>  (1) 
-0.28239387558594881

>  <r_i_glide_ligand_efficiency_ln>  (1) 
-1.5705641936238408

>  <r_i_glide_ligand_efficiency_sa>  (1) 
-0.80309061809119098

>  <r_i_glide_lipo>  (1) 
-2.5212320316956753

>  <r_i_glide_metal>  (1) 
-0

>  <r_i_glide_rewards>  (1) 
-1.7671020357475047

>  <r_lp_Energy>  (1) 
29.344918999999997

>  <r_lp_tautomer_probability>  (1) 
1

>  <s_epik_cmdline>  (1) 
J2VwaWtfcHl0aG9uJywgJy1waHQnLCAnMS4wJywgJy1waCcsICc3LjQnLCAnLXRuJywgJzgnLCAnLW1hJywgJzUwMCcsICctaW1hZScsICc8aW5maWxlLm1hZT4nLCAnLW9tYWUnLCAnPG91dGZpbGUubWFlPic=

>  <s_epik_input>  (1) 
W2NIXTFbY0hdYyhPW0NIM10pW2NIXWMoYzEyKVtDSDJdTihbQ0gyXTIpW05IXVtDQEBIXTNbQ0gyXU4oW0NIMl1bQ0gyXTMpW0NIMl1bQ0BAXShbQ0gzXSkoW09IXSlbQ0gyXVtPSF0=

>  <s_glide_docking_method>  (1) 
confgen

>  <s_i_glide_gridfile>  (1) 
gpcr_drd2_6luq_protein_autoprepared_prepared

>  <s_lp_Force_Field>  (1) 
S-OPLS

>  <s_lp_Variant>  (1) 
DiffSBDD_48_num_sample_100-2

>  <s_m_source_file>  (1) 
generated__ligand_DiffSBDD_2026-05-06_prepared.sdf

>  <GenAI_Model>  (1) 
DiffSBDD

>  <Protein>  (1) 
generic_title2

$$$$
DiffSBDD_55_num_sample_100
     RDKit          3D

  0  0  0  0  0  0  0  0  0  0999 V3000
M  V30 BEGIN CTAB
M  V30 COUNTS 51 54 0 0 1
M  V30 BEGIN ATOM
M  V30 1 O 7.512709 5.408367 -13.761346 0
M  V30 2 C 12.234852 7.855795 -3.511916 0
M  V30 3 C 9.308643 7.610118 -11.116785 0
M  V30 4 C 11.719436 8.569138 -8.878375 0
M  V30 5 C 9.225498 4.813859 -10.399077 0 CFG=2
M  V30 6 C 9.051468 5.214035 -11.873339 0 CFG=1
M  V30 7 S 11.936054 9.769299 -5.439661 0
M  V30 8 C 12.234004 9.369290 -3.693124 0
M  V30 9 C 11.434831 7.276122 -4.668978 0
M  V30 10 C 5.886132 3.811941 -13.384196 0
M  V30 11 N 9.924102 7.190002 -9.839914 0 CFG=1 CHG=1
M  V30 12 C 7.580584 5.178719 -12.361277 0 CFG=2
M  V30 13 C 9.662532 6.592655 -12.169879 0 CFG=2
M  V30 14 C 6.855960 3.841359 -12.213369 0
M  V30 15 C 6.189212 5.094289 -14.155686 0
M  V30 16 C 9.846931 8.181635 -6.320645 0
M  V30 17 C 10.207131 8.293455 -8.881982 0 CFG=1
M  V30 18 C 11.302769 8.141787 -5.912849 0 CFG=1
M  V30 19 C 8.234817 5.250855 -9.338477 0
M  V30 20 O 10.925809 6.169302 -4.600796 0
M  V30 21 O 11.073109 6.569161 -12.292061 0
M  V30 22 C 9.376792 8.240521 -7.585919 0
M  V30 23 C 9.625698 5.822662 -9.308229 0 CFG=1
M  V30 24 H 13.249945 7.460174 -3.547901 0
M  V30 25 H 11.802483 7.570237 -2.553208 0
M  V30 26 H 9.718239 8.569322 -11.430918 0
M  V30 27 H 8.234603 7.741938 -11.091611 0
M  V30 28 H 11.991865 9.369599 -8.199078 0
M  V30 29 H 12.304630 7.678410 -8.652789 0
M  V30 30 H 12.038392 8.898710 -9.868510 0
M  V30 31 H 9.597233 3.797732 -10.281909 0
M  V30 32 H 9.594545 4.477440 -12.467750 0
M  V30 33 H 13.188718 9.780882 -3.372168 0
M  V30 34 H 11.451333 9.826041 -3.086144 0
M  V30 35 H 4.842688 3.770103 -13.070044 0
M  V30 36 H 6.089623 2.937131 -14.001267 0
M  V30 37 H 6.993385 5.960264 -11.878335 0
M  V30 38 H 9.252439 6.969341 -13.091664 0
M  V30 39 H 7.557642 3.009183 -12.292926 0
M  V30 40 H 6.346320 3.769274 -11.251150 0
M  V30 41 H 5.514350 5.897580 -13.852344 0
M  V30 42 H 6.105823 4.970437 -15.235982 0
M  V30 43 H 9.135255 8.159082 -5.512592 0
M  V30 44 H 9.791676 9.198860 -9.325720 0
M  V30 45 H 11.926165 7.673685 -6.661811 0
M  V30 46 H 8.002227 4.539299 -8.550539 0
M  V30 47 H 7.364252 5.769279 -9.705951 0
M  V30 48 H 11.301655 5.951844 -12.978115 0
M  V30 49 H 8.315057 8.261237 -7.719785 0
M  V30 50 H 10.313405 5.497166 -8.530088 0
M  V30 51 H 10.852138 7.025393 -10.206698 0
M  V30 END ATOM
M  V30 BEGIN BOND
M  V30 1 1 6 5
M  V30 2 1 8 2
M  V30 3 1 8 7
M  V30 4 1 9 2
M  V30 5 1 11 3
M  V30 6 1 12 1
M  V30 7 1 12 6
M  V30 8 1 13 3
M  V30 9 1 13 6
M  V30 10 1 14 10
M  V30 11 1 14 12
M  V30 12 1 15 1
M  V30 13 1 15 10
M  V30 14 1 17 4
M  V30 15 1 17 11
M  V30 16 1 18 7
M  V30 17 1 18 9
M  V30 18 1 18 16
M  V30 19 1 19 5
M  V30 20 2 20 9
M  V30 21 1 21 13
M  V30 22 2 22 16
M  V30 23 1 22 17
M  V30 24 1 23 5
M  V30 25 1 23 11
M  V30 26 1 23 19
M  V30 27 1 24 2
M  V30 28 1 25 2
M  V30 29 1 26 3
M  V30 30 1 27 3
M  V30 31 1 28 4
M  V30 32 1 29 4
M  V30 33 1 30 4
M  V30 34 1 5 31 CFG=3
M  V30 35 1 6 32 CFG=3
M  V30 36 1 33 8
M  V30 37 1 34 8
M  V30 38 1 35 10
M  V30 39 1 36 10
M  V30 40 1 12 37 CFG=1
M  V30 41 1 13 38 CFG=3
M  V30 42 1 39 14
M  V30 43 1 40 14
M  V30 44 1 41 15
M  V30 45 1 42 15
M  V30 46 1 43 16
M  V30 47 1 17 44 CFG=3
M  V30 48 1 18 45 CFG=3
M  V30 49 1 46 19
M  V30 50 1 47 19
M  V30 51 1 48 21
M  V30 52 1 49 22
M  V30 53 1 23 50 CFG=1
M  V30 54 1 11 51 CFG=3
M  V30 END BOND
M  V30 END CTAB
M  END
>  <i_epik_Tot_Q>  (1) 
1

>  <i_epik_Tot_abs_Q>  (1) 
1

>  <i_i_glide_confnum>  (1) 
4

>  <i_i_glide_lignum>  (1) 
103

>  <i_i_glide_posenum>  (1) 
168

>  <i_i_glide_rotatable_bonds>  (1) 
5

>  <i_lp_mmshare_version>  (1) 
72125

>  <i_m_source_file_index>  (1) 
56

>  <i_f3d_flags>  (1) 
0

>  <num_sample>  (1) 
100

>  <b_lp_Chiralities_Consistent>  (1) 
1

>  <r_epik_Charging_Adjusted_Penalty>  (1) 
0.1887110856522376

>  <r_epik_Ionization_Penalty>  (1) 
0.094355642401006162

>  <r_epik_Ionization_Penalty_Charging>  (1) 
0.094355542826118813

>  <r_epik_Ionization_Penalty_Neutral>  (1) 
9.9574887353862298e-08

>  <r_epik_State_Penalty>  (1) 
0.094355542826118799

>  <r_glide_ring_energy>  (1) 
0.36577621362553114

>  <r_i_docking_score>  (1) 
-6.4891610254694774

>  <r_i_glide_ecoul>  (1) 
-2.7424618199512842

>  <r_i_glide_eff_state_penalty>  (1) 
0.094355542826118799

>  <r_i_glide_einternal>  (1) 
7.9070132203977721

>  <r_i_glide_emodel>  (1) 
-45.198265958245962

>  <r_i_glide_emodel_strain>  (1) 
1.99747105667943

>  <r_i_glide_energy>  (1) 
-36.100391884602161

>  <r_i_glide_erotb>  (1) 
0.49519417565235591

>  <r_i_glide_esite>  (1) 
-0.088600766200407785

>  <r_i_glide_evdw>  (1) 
-33.357930064650873

>  <r_i_glide_gscore>  (1) 
-6.5835165682955958

>  <r_i_glide_gscore_strain>  (1) 
0

>  <r_i_glide_hbond>  (1) 
-0.23613088367851393

>  <r_i_glide_ligand_efficiency>  (1) 
-0.28213743588997725

>  <r_i_glide_ligand_efficiency_ln>  (1) 
-1.5691379764175328

>  <r_i_glide_ligand_efficiency_sa>  (1) 
-0.8023613377074944

>  <r_i_glide_lipo>  (1) 
-2.5741113644515661

>  <r_i_glide_metal>  (1) 
-0

>  <r_i_glide_rewards>  (1) 
-2.1006019533922271

>  <r_lp_Energy>  (1) 
19.602328

>  <r_lp_tautomer_probability>  (1) 
0.99995000000000001

>  <s_epik_cmdline>  (1) 
J2VwaWtfcHl0aG9uJywgJy1waHQnLCAnMS4wJywgJy1waCcsICc3LjQnLCAnLXRuJywgJzgnLCAnLW1hJywgJzUwMCcsICctaW1hZScsICc8aW5maWxlLm1hZT4nLCAnLW9tYWUnLCAnPG91dGZpbGUubWFlPic=

>  <s_epik_input>  (1) 
W0NIMl0xW0NIMl1bQ0gyXU9bQ0BASF0xW0NASF0yW0NASF0oW09IXSlbQ0gyXU4oW0NASF0oW0NASF0yMylbQ0gyXTMpW0NASF0oW0NIM10pL1tDSF09W0NIXVxbQ0BIXTRTW0NIMl1bQ0gyXUM0PU8=

>  <s_glide_docking_method>  (1) 
confgen

>  <s_i_glide_gridfile>  (1) 
gpcr_drd2_6luq_protein_autoprepared_prepared

>  <s_lp_Force_Field>  (1) 
S-OPLS

>  <s_lp_Variant>  (1) 
DiffSBDD_55_num_sample_100-4

>  <s_m_source_file>  (1) 
generated__ligand_DiffSBDD_2026-05-06_prepared.sdf

>  <GenAI_Model>  (1) 
DiffSBDD

>  <Protein>  (1) 
generic_title2

$$$$
DiffSBDD_27_num_sample_100
     RDKit          3D

  0  0  0  0  0  0  0  0  0  0999 V3000
M  V30 BEGIN CTAB
M  V30 COUNTS 57 57 0 0 1
M  V30 BEGIN ATOM
M  V30 1 C 6.651628 0.370021 -15.006413 0 CFG=2
M  V30 2 C 9.316564 4.907298 -11.138621 0
M  V30 3 N 5.761554 0.170364 -13.856248 0
M  V30 4 C 11.428811 9.918178 -6.161948 0
M  V30 5 C 6.146556 1.155918 -17.187882 0
M  V30 6 C 9.079236 4.732260 -13.640880 0
M  V30 7 N 7.435791 5.368451 -9.624287 0 CHG=1
M  V30 8 C 9.557146 6.962832 -7.825854 0
M  V30 9 C 11.308773 8.504760 -6.764313 0
M  V30 10 C 11.430792 7.513734 -5.581058 0
M  V30 11 C 8.904152 5.343752 -9.743371 0 CFG=2
M  V30 12 C 9.553984 6.695431 -9.346026 0
M  V30 13 C 7.122547 1.863950 -15.199331 0
M  V30 14 C 7.461026 4.833962 -15.482673 0
M  V30 15 C 5.949992 -0.009598 -16.374032 0
M  V30 16 O 5.344287 -1.038140 -16.663868 0
M  V30 17 C 7.818227 2.619339 -14.295895 0
M  V30 18 N 9.996070 8.340561 -7.459383 0 CHG=1
M  V30 19 N 8.106406 4.007977 -14.468566 0
M  V30 20 C 6.760482 2.123235 -16.562196 0
M  V30 21 C 8.340320 2.006503 -12.999610 0
M  V30 22 C 12.443315 8.374580 -7.799039 0
M  V30 23 C 8.627172 5.174009 -12.263960 0
M  V30 24 H 7.532393 -0.258222 -14.874027 0
M  V30 25 H 10.229964 4.345618 -11.209582 0
M  V30 26 H 4.889326 0.662819 -13.977437 0
M  V30 27 H 5.496632 -0.812858 -13.761872 0
M  V30 28 H 11.506258 10.686902 -6.922128 0
M  V30 29 H 10.599324 10.163048 -5.503248 0
M  V30 30 H 12.339754 10.015493 -5.570330 0
M  V30 31 H 5.814264 1.197622 -18.214562 0
M  V30 32 H 9.998985 4.167656 -13.541697 0
M  V30 33 H 9.391545 5.634763 -14.166397 0
M  V30 34 H 7.015708 4.914961 -10.420725 0
M  V30 35 H 7.128636 4.904061 -8.781600 0
M  V30 36 H 8.550561 6.847579 -7.432837 0
M  V30 37 H 10.142093 6.187661 -7.334111 0
M  V30 38 H 11.782824 6.530604 -5.894332 0
M  V30 39 H 12.113630 7.866942 -4.805507 0
M  V30 40 H 10.468118 7.374717 -5.087159 0
M  V30 41 H 9.265467 4.562465 -9.074029 0
M  V30 42 H 10.587177 6.709382 -9.694326 0
M  V30 43 H 9.051593 7.502084 -9.880774 0
M  V30 44 H 6.414052 4.565229 -15.614920 0
M  V30 45 H 7.460807 5.881385 -15.178576 0
M  V30 46 H 7.998671 4.777372 -16.430388 0
M  V30 47 H 9.980275 8.918375 -8.287329 0
M  V30 48 H 6.988160 3.048898 -17.054811 0
M  V30 49 H 8.701017 0.993539 -13.186775 0
M  V30 50 H 9.163994 2.515640 -12.507932 0
M  V30 51 H 7.517927 1.928370 -12.291667 0
M  V30 52 H 12.274179 9.034062 -8.651434 0
M  V30 53 H 13.415878 8.652966 -7.390668 0
M  V30 54 H 12.527199 7.370105 -8.195745 0
M  V30 55 H 7.706622 5.734307 -12.215195 0
M  V30 56 H 9.286641 8.694422 -6.833515 0
M  V30 57 H 7.124209 6.351872 -9.575210 0
M  V30 END ATOM
M  V30 BEGIN BOND
M  V30 1 1 3 1
M  V30 2 1 9 4
M  V30 3 1 10 9
M  V30 4 1 11 2
M  V30 5 1 11 7
M  V30 6 1 12 8
M  V30 7 1 12 11
M  V30 8 1 13 1
M  V30 9 1 15 1
M  V30 10 1 15 5
M  V30 11 2 16 15
M  V30 12 2 17 13
M  V30 13 1 18 8
M  V30 14 1 18 9
M  V30 15 1 19 6
M  V30 16 1 19 14
M  V30 17 1 19 17
M  V30 18 2 20 5
M  V30 19 1 20 13
M  V30 20 1 21 17
M  V30 21 1 22 9
M  V30 22 2 23 2
M  V30 23 1 23 6
M  V30 24 1 1 24 CFG=1
M  V30 25 1 25 2
M  V30 26 1 26 3
M  V30 27 1 27 3
M  V30 28 1 28 4
M  V30 29 1 29 4
M  V30 30 1 30 4
M  V30 31 1 31 5
M  V30 32 1 32 6
M  V30 33 1 33 6
M  V30 34 1 34 7
M  V30 35 1 35 7
M  V30 36 1 36 8
M  V30 37 1 37 8
M  V30 38 1 38 10
M  V30 39 1 39 10
M  V30 40 1 40 10
M  V30 41 1 11 41 CFG=1
M  V30 42 1 42 12
M  V30 43 1 43 12
M  V30 44 1 44 14
M  V30 45 1 45 14
M  V30 46 1 46 14
M  V30 47 1 47 18
M  V30 48 1 48 20
M  V30 49 1 49 21
M  V30 50 1 50 21
M  V30 51 1 51 21
M  V30 52 1 52 22
M  V30 53 1 53 22
M  V30 54 1 54 22
M  V30 55 1 55 23
M  V30 56 1 56 18
M  V30 57 1 57 7
M  V30 END BOND
M  V30 END CTAB
M  END
>  <i_epik_Tot_Q>  (1) 
2

>  <i_epik_Tot_abs_Q>  (1) 
2

>  <i_i_glide_confnum>  (1) 
171

>  <i_i_glide_lignum>  (1) 
43

>  <i_i_glide_posenum>  (1) 
123

>  <i_i_glide_rotatable_bonds>  (1) 
8

>  <i_lp_mmshare_version>  (1) 
72125

>  <i_m_source_file_index>  (1) 
28

>  <i_f3d_flags>  (1) 
0

>  <num_sample>  (1) 
100

>  <b_lp_Chiralities_Consistent>  (1) 
1

>  <r_epik_Charging_Adjusted_Penalty>  (1) 
0.47954930221194114

>  <r_epik_Ionization_Penalty>  (1) 
0.082650424812652987

>  <r_epik_Ionization_Penalty_Charging>  (1) 
0.068869463259337155

>  <r_epik_Ionization_Penalty_Neutral>  (1) 
0.013780961553315832

>  <r_epik_State_Penalty>  (1) 
0.41067983895260396

>  <r_glide_ring_energy>  (1) 
0

>  <r_i_docking_score>  (1) 
-6.4877459647615225

>  <r_i_glide_ecoul>  (1) 
-10.692647532466879

>  <r_i_glide_eff_state_penalty>  (1) 
0.41067983895260396

>  <r_i_glide_einternal>  (1) 
11.367631154461197

>  <r_i_glide_emodel>  (1) 
-49.330834304513424

>  <r_i_glide_emodel_strain>  (1) 
3.3331123319618925

>  <r_i_glide_energy>  (1) 
-34.391798924379891

>  <r_i_glide_erotb>  (1) 
0.88107071462136088

>  <r_i_glide_esite>  (1) 
-0.12388294599869937

>  <r_i_glide_evdw>  (1) 
-23.699151391913013

>  <r_i_glide_gscore>  (1) 
-6.8984258037141268

>  <r_i_glide_gscore_strain>  (1) 
0

>  <r_i_glide_hbond>  (1) 
-0.34319016215948805

>  <r_i_glide_ligand_efficiency>  (1) 
-0.28207591151137057

>  <r_i_glide_ligand_efficiency_ln>  (1) 
-1.5687958019072883

>  <r_i_glide_ligand_efficiency_sa>  (1) 
-0.80218637055871878

>  <r_i_glide_lipo>  (1) 
-2.0815728638397886

>  <r_i_glide_metal>  (1) 
-0

>  <r_i_glide_rewards>  (1) 
-2.4419958468718295

>  <r_lp_Energy>  (1) 
29.109323

>  <r_lp_tautomer_probability>  (1) 
0.5

>  <s_epik_cmdline>  (1) 
J2VwaWtfcHl0aG9uJywgJy1waHQnLCAnMS4wJywgJy1waCcsICc3LjQnLCAnLXRuJywgJzgnLCAnLW1hJywgJzUwMCcsICctaW1hZScsICc8aW5maWxlLm1hZT4nLCAnLW9tYWUnLCAnPG91dGZpbGUubWFlPic=

>  <s_epik_input>  (1) 
Tz1DMVtDSF09W0NIXUMoXFtDQEhdMVtOSDJdKT1DKFtDSDNdKS9OKFtDSDNdKVtDSDJdXFtDSF09W0NIXVxbQ0BIXShbTkgyXSlbQ0gyXVtDSDJdW05IXUMoW0NIM10pKFtDSDNdKVtDSDNd

>  <s_glide_docking_method>  (1) 
confgen

>  <s_i_glide_gridfile>  (1) 
gpcr_drd2_6luq_protein_autoprepared_prepared

>  <s_lp_Force_Field>  (1) 
S-OPLS

>  <s_lp_Variant>  (1) 
DiffSBDD_27_num_sample_100-1

>  <s_m_source_file>  (1) 
generated__ligand_DiffSBDD_2026-05-06_prepared.sdf

>  <GenAI_Model>  (1) 
DiffSBDD

>  <Protein>  (1) 
generic_title2

$$$$
DiffSBDD_48_num_sample_100
     RDKit          3D

  0  0  0  0  0  0  0  0  0  0999 V3000
M  V30 BEGIN CTAB
M  V30 COUNTS 51 53 0 0 1
M  V30 BEGIN ATOM
M  V30 1 O 12.634819 7.330767 -2.019237 0
M  V30 2 O 6.614610 3.162185 -12.943437 0
M  V30 3 C 10.322011 6.507687 -6.355348 0
M  V30 4 C 7.902858 3.357863 -13.490264 0
M  V30 5 C 7.918065 5.863481 -12.745163 0
M  V30 6 N 10.411832 7.522885 -7.494052 0
M  V30 7 C 8.117783 4.835957 -13.893436 0 CFG=2
M  V30 8 N 9.476856 7.426394 -8.540667 0
M  V30 9 C 11.899685 9.520700 -4.902617 0
M  V30 10 C 7.201477 5.203377 -15.076124 0
M  V30 11 C 9.388812 6.803049 -10.958080 0
M  V30 12 C 12.634840 5.950045 -1.728189 0
M  V30 13 C 8.122835 4.899839 -10.443513 0
M  V30 14 C 12.172531 7.742700 -3.246700 0
M  V30 15 C 11.236703 8.606101 -5.730748 0
M  V30 16 C 12.373831 9.084538 -3.646664 0
M  V30 17 C 9.077943 5.069077 -9.264273 0
M  V30 18 C 9.790613 6.403665 -9.527404 0 CFG=2
M  V30 19 O 9.434815 4.969319 -14.402232 0
M  V30 20 N 8.774996 5.605053 -11.560227 0 CFG=1 CHG=1
M  V30 21 C 11.034843 7.331576 -5.359232 0
M  V30 22 C 11.483692 6.848597 -4.121915 0
M  V30 23 C 10.712608 8.942998 -7.056593 0
M  V30 24 H 6.462729 2.232469 -12.850182 0
M  V30 25 H 9.287783 6.325657 -6.061109 0
M  V30 26 H 10.845120 5.589121 -6.616389 0
M  V30 27 H 8.650309 3.026773 -12.768347 0
M  V30 28 H 8.009355 2.708928 -14.360859 0
M  V30 29 H 8.142839 6.857458 -13.136896 0
M  V30 30 H 6.870371 5.903009 -12.442309 0
M  V30 31 H 8.513625 7.368488 -8.201157 0
M  V30 32 H 12.048350 10.541601 -5.221893 0
M  V30 33 H 6.149068 5.152421 -14.794787 0
M  V30 34 H 7.395826 6.215749 -15.432306 0
M  V30 35 H 7.346430 4.527344 -15.919918 0
M  V30 36 H 10.239237 7.152161 -11.544917 0
M  V30 37 H 8.650063 7.607401 -10.933824 0
M  V30 38 H 13.275973 5.746881 -0.871813 0
M  V30 39 H 11.620687 5.634187 -1.491832 0
M  V30 40 H 13.034743 5.369306 -2.554463 0
M  V30 41 H 7.165767 5.369739 -10.207837 0
M  V30 42 H 7.939437 3.856691 -10.681872 0
M  V30 43 H 12.889750 9.769585 -2.992749 0
M  V30 44 H 8.549654 5.038697 -8.309840 0
M  V30 45 H 9.813756 4.263058 -9.256381 0
M  V30 46 H 10.865832 6.245345 -9.491659 0
M  V30 47 H 10.062471 4.477931 -13.890556 0
M  V30 48 H 11.307288 5.820519 -3.845586 0
M  V30 49 H 11.434619 9.426486 -7.716306 0
M  V30 50 H 9.776745 9.480807 -6.961868 0
M  V30 51 H 9.543993 5.028049 -11.864966 0
M  V30 END ATOM
M  V30 BEGIN BOND
M  V30 1 1 4 2
M  V30 2 1 6 3
M  V30 3 1 7 4
M  V30 4 1 7 5
M  V30 5 1 8 6
M  V30 6 1 10 7
M  V30 7 1 12 1
M  V30 8 1 14 1
M  V30 9 1 15 9
M  V30 10 2 16 9
M  V30 11 1 16 14
M  V30 12 1 17 13
M  V30 13 1 18 8
M  V30 14 1 18 11
M  V30 15 1 18 17
M  V30 16 1 7 19 CFG=3
M  V30 17 1 20 5
M  V30 18 1 20 11
M  V30 19 1 20 13
M  V30 20 1 21 3
M  V30 21 2 21 15
M  V30 22 2 22 14
M  V30 23 1 22 21
M  V30 24 1 23 6
M  V30 25 1 23 15
M  V30 26 1 24 2
M  V30 27 1 25 3
M  V30 28 1 26 3
M  V30 29 1 27 4
M  V30 30 1 28 4
M  V30 31 1 29 5
M  V30 32 1 30 5
M  V30 33 1 31 8
M  V30 34 1 32 9
M  V30 35 1 33 10
M  V30 36 1 34 10
M  V30 37 1 35 10
M  V30 38 1 36 11
M  V30 39 1 37 11
M  V30 40 1 38 12
M  V30 41 1 39 12
M  V30 42 1 40 12
M  V30 43 1 41 13
M  V30 44 1 42 13
M  V30 45 1 43 16
M  V30 46 1 44 17
M  V30 47 1 45 17
M  V30 48 1 18 46 CFG=3
M  V30 49 1 47 19
M  V30 50 1 48 22
M  V30 51 1 49 23
M  V30 52 1 50 23
M  V30 53 1 20 51 CFG=3
M  V30 END BOND
M  V30 END CTAB
M  END
>  <i_epik_Tot_Q>  (1) 
1

>  <i_epik_Tot_abs_Q>  (1) 
1

>  <i_i_glide_confnum>  (1) 
292

>  <i_i_glide_lignum>  (1) 
89

>  <i_i_glide_posenum>  (1) 
25

>  <i_i_glide_rotatable_bonds>  (1) 
8

>  <i_lp_mmshare_version>  (1) 
72125

>  <i_m_source_file_index>  (1) 
49

>  <i_f3d_flags>  (1) 
0

>  <num_sample>  (1) 
100

>  <b_lp_Chiralities_Consistent>  (1) 
1

>  <r_epik_Charging_Adjusted_Penalty>  (1) 
0.014070542232369893

>  <r_epik_Ionization_Penalty>  (1) 
0.01444304470814459

>  <r_epik_Ionization_Penalty_Charging>  (1) 
0.014070542232369893

>  <r_epik_Ionization_Penalty_Neutral>  (1) 
0.00037250247577469821

>  <r_epik_State_Penalty>  (1) 
-0

>  <r_glide_ring_energy>  (1) 
0.0027901821581941132

>  <r_i_docking_score>  (1) 
-6.4766056358737769

>  <r_i_glide_ecoul>  (1) 
-7.057312406552902

>  <r_i_glide_eff_state_penalty>  (1) 
-0

>  <r_i_glide_einternal>  (1) 
5.80046763145317

>  <r_i_glide_emodel>  (1) 
-55.985747869359905

>  <r_i_glide_emodel_strain>  (1) 
0.22878146228586616

>  <r_i_glide_energy>  (1) 
-37.669375065532854

>  <r_i_glide_erotb>  (1) 
0.89938055447957976

>  <r_i_glide_esite>  (1) 
-0.12395740707801567

>  <r_i_glide_evdw>  (1) 
-30.612062658979951

>  <r_i_glide_gscore>  (1) 
-6.4766056358737769

>  <r_i_glide_gscore_strain>  (1) 
0

>  <r_i_glide_hbond>  (1) 
-0.24118159704152228

>  <r_i_glide_ligand_efficiency>  (1) 
-0.28159154938581638

>  <r_i_glide_ligand_efficiency_ln>  (1) 
-1.5661019693673139

>  <r_i_glide_ligand_efficiency_sa>  (1) 
-0.80080890910356461

>  <r_i_glide_lipo>  (1) 
-2.6294847914535153

>  <r_i_glide_metal>  (1) 
-0

>  <r_i_glide_rewards>  (1) 
-1.7921624008483708

>  <r_lp_Energy>  (1) 
33.837268999999999

>  <r_lp_tautomer_probability>  (1) 
1

>  <s_epik_cmdline>  (1) 
J2VwaWtfcHl0aG9uJywgJy1waHQnLCAnMS4wJywgJy1waCcsICc3LjQnLCAnLXRuJywgJzgnLCAnLW1hJywgJzUwMCcsICctaW1hZScsICc8aW5maWxlLm1hZT4nLCAnLW9tYWUnLCAnPG91dGZpbGUubWFlPic=

>  <s_epik_input>  (1) 
W2NIXTFbY0hdYyhPW0NIM10pW2NIXWMoYzEyKVtDSDJdTihbQ0gyXTIpW05IXVtDQEBIXTNbQ0gyXU4oW0NIMl1bQ0gyXTMpW0NIMl1bQ0BAXShbQ0gzXSkoW09IXSlbQ0gyXVtPSF0=

>  <s_glide_docking_method>  (1) 
confgen

>  <s_i_glide_gridfile>  (1) 
gpcr_drd2_6luq_protein_autoprepared_prepared

>  <s_lp_Force_Field>  (1) 
S-OPLS

>  <s_lp_Variant>  (1) 
DiffSBDD_48_num_sample_100-1

>  <s_m_source_file>  (1) 
generated__ligand_DiffSBDD_2026-05-06_prepared.sdf

>  <GenAI_Model>  (1) 
DiffSBDD

>  <Protein>  (1) 
generic_title2

$$$$
DiffSBDD_40_num_sample_100
     RDKit          3D

  0  0  0  0  0  0  0  0  0  0999 V3000
M  V30 BEGIN CTAB
M  V30 COUNTS 62 66 0 0 1
M  V30 BEGIN ATOM
M  V30 1 F 12.158702 7.851775 -3.469078 0
M  V30 2 C 8.500357 5.674390 -10.987433 0 CFG=2
M  V30 3 O 5.237781 4.373455 -13.491552 0
M  V30 4 C 7.607201 5.728845 -18.138260 0
M  V30 5 C 8.587420 6.914715 -11.888791 0
M  V30 6 C 6.166077 4.466564 -12.693934 0
M  V30 7 C 8.224218 4.299073 -11.610224 0 CFG=1
M  V30 8 C 10.355456 7.385298 -8.131060 0
M  V30 9 C 7.699531 2.684186 -19.423879 0
M  V30 10 F 13.208220 9.369312 -4.587045 0
M  V30 11 O 8.187901 4.767200 -14.044470 0
M  V30 12 C 5.240980 6.379636 -17.595083 0
M  V30 13 F 11.219881 9.769319 -3.874472 0
M  V30 14 O 7.649711 0.874769 -17.784847 0
M  V30 15 C 11.577090 9.069648 -6.857839 0
M  V30 16 N 9.764936 6.989282 -9.388389 0
M  V30 17 N 8.350018 4.520531 -17.763154 0
M  V30 18 C 12.013332 8.823314 -4.371181 0
M  V30 19 C 10.759106 7.069063 -5.731568 0
M  V30 20 C 7.185841 4.969248 -10.680409 0 CFG=2
M  V30 21 C 9.273421 5.759294 -9.677098 0
M  V30 22 C 7.610398 2.459162 -13.314357 0
M  V30 23 C 7.573810 3.975701 -13.012147 0 CFG=2
M  V30 24 O 9.434839 4.778704 -8.953256 0
M  V30 25 C 7.604203 3.297937 -18.045945 0 CFG=2
M  V30 26 C 6.476118 6.068674 -17.169155 0
M  V30 27 C 6.840166 6.040963 -15.691073 0
M  V30 28 C 8.357980 2.007944 -18.237093 0 CFG=2
M  V30 29 C 10.217547 6.603845 -6.947355 0
M  V30 30 C 7.618174 4.750907 -15.359320 0 CFG=1
M  V30 31 C 11.038606 8.610455 -8.074965 0
M  V30 32 C 8.775385 4.584918 -16.361147 0
M  V30 33 N 6.065530 4.983290 -11.505321 0
M  V30 34 C 11.434848 8.306731 -5.685264 0
M  V30 35 H 8.298439 6.569307 -18.161650 0
M  V30 36 H 7.219055 5.631848 -19.153312 0
M  V30 37 H 7.899180 6.840342 -12.728086 0
M  V30 38 H 8.307860 7.821645 -11.352619 0
M  V30 39 H 9.596421 7.027800 -12.286360 0
M  V30 40 H 8.829047 3.487583 -11.208414 0
M  V30 41 H 8.352336 3.168449 -20.147718 0
M  V30 42 H 6.798854 2.234646 -19.838428 0
M  V30 43 H 4.454173 6.620312 -16.895024 0
M  V30 44 H 5.002835 6.396597 -18.648514 0
M  V30 45 H 6.723196 1.035265 -17.875712 0
M  V30 46 H 12.092806 10.016323 -6.821372 0
M  V30 47 H 9.664393 7.708626 -10.087940 0
M  V30 48 H 10.644536 6.480534 -4.832862 0
M  V30 49 H 7.034836 4.514617 -9.701443 0
M  V30 50 H 7.092887 1.890505 -12.542474 0
M  V30 51 H 7.136207 2.190393 -14.256466 0
M  V30 52 H 8.635122 2.093037 -13.349585 0
M  V30 53 H 6.634842 3.267742 -17.553496 0
M  V30 54 H 7.434985 6.920876 -15.461762 0
M  V30 55 H 5.938807 6.135572 -15.089713 0
M  V30 56 H 9.442613 1.968477 -18.152907 0
M  V30 57 H 9.682528 5.675051 -6.953410 0
M  V30 58 H 6.937470 3.911702 -15.476100 0
M  V30 59 H 11.140744 9.211515 -8.966908 0
M  V30 60 H 9.345456 3.690328 -16.114276 0
M  V30 61 H 9.469256 5.417472 -16.237404 0
M  V30 62 H 5.192602 5.355860 -11.163321 0
M  V30 END ATOM
M  V30 BEGIN BOND
M  V30 1 1 2 5 CFG=3
M  V30 2 2 6 3
M  V30 3 1 7 2
M  V30 4 1 16 8
M  V30 5 1 17 4
M  V30 6 1 18 1
M  V30 7 1 18 10
M  V30 8 1 18 13
M  V30 9 1 20 2
M  V30 10 1 20 7
M  V30 11 1 21 2
M  V30 12 1 21 16
M  V30 13 1 23 6
M  V30 14 1 23 7
M  V30 15 1 23 11 CFG=3
M  V30 16 1 23 22
M  V30 17 2 24 21
M  V30 18 1 25 9
M  V30 19 1 25 17
M  V30 20 1 26 4
M  V30 21 2 26 12
M  V30 22 1 27 26
M  V30 23 1 28 9
M  V30 24 1 28 14
M  V30 25 1 28 25
M  V30 26 1 29 8
M  V30 27 2 29 19
M  V30 28 1 30 11
M  V30 29 1 30 27
M  V30 30 2 31 8
M  V30 31 1 31 15
M  V30 32 1 32 17
M  V30 33 1 32 30
M  V30 34 1 33 6
M  V30 35 1 33 20
M  V30 36 2 34 15
M  V30 37 1 34 18
M  V30 38 1 34 19
M  V30 39 1 35 4
M  V30 40 1 36 4
M  V30 41 1 37 5
M  V30 42 1 38 5
M  V30 43 1 39 5
M  V30 44 1 7 40 CFG=1
M  V30 45 1 41 9
M  V30 46 1 42 9
M  V30 47 1 43 12
M  V30 48 1 44 12
M  V30 49 1 45 14
M  V30 50 1 46 15
M  V30 51 1 47 16
M  V30 52 1 48 19
M  V30 53 1 20 49 CFG=1
M  V30 54 1 50 22
M  V30 55 1 51 22
M  V30 56 1 52 22
M  V30 57 1 25 53 CFG=1
M  V30 58 1 54 27
M  V30 59 1 55 27
M  V30 60 1 28 56 CFG=3
M  V30 61 1 57 29
M  V30 62 1 30 58 CFG=1
M  V30 63 1 59 31
M  V30 64 1 60 32
M  V30 65 1 61 32
M  V30 66 1 62 33
M  V30 END BOND
M  V30 END CTAB
M  END
>  <i_epik_Tot_Q>  (1) 
0

>  <i_epik_Tot_abs_Q>  (1) 
0

>  <i_i_glide_confnum>  (1) 
134

>  <i_i_glide_lignum>  (1) 
72

>  <i_i_glide_posenum>  (1) 
296

>  <i_i_glide_rotatable_bonds>  (1) 
8

>  <i_lp_mmshare_version>  (1) 
72125

>  <i_m_source_file_index>  (1) 
41

>  <i_f3d_flags>  (1) 
0

>  <num_sample>  (1) 
100

>  <b_lp_Chiralities_Consistent>  (1) 
1

>  <r_epik_Charging_Adjusted_Penalty>  (1) 
0.63391490954422869

>  <r_epik_Ionization_Penalty>  (1) 
0.63391730383191769

>  <r_epik_Ionization_Penalty_Charging>  (1) 
0

>  <r_epik_Ionization_Penalty_Neutral>  (1) 
0.63391730383191769

>  <r_epik_State_Penalty>  (1) 
0.63391490954422869

>  <r_glide_ring_energy>  (1) 
0

>  <r_i_docking_score>  (1) 
-6.4713056245783207

>  <r_i_glide_ecoul>  (1) 
-1.5837542793915913

>  <r_i_glide_eff_state_penalty>  (1) 
0.63391490954422869

>  <r_i_glide_einternal>  (1) 
3.4679123973384485

>  <r_i_glide_emodel>  (1) 
-63.49071181961439

>  <r_i_glide_emodel_strain>  (1) 
0.57657273583609481

>  <r_i_glide_energy>  (1) 
-46.956560378706754

>  <r_i_glide_erotb>  (1) 
0.52901650880821682

>  <r_i_glide_esite>  (1) 
-0.20147788470806366

>  <r_i_glide_evdw>  (1) 
-45.372806099315163

>  <r_i_glide_gscore>  (1) 
-7.1052205341225489

>  <r_i_glide_gscore_strain>  (1) 
0

>  <r_i_glide_hbond>  (1) 
0

>  <r_i_glide_ligand_efficiency>  (1) 
-0.1903325183699506

>  <r_i_glide_ligand_efficiency_ln>  (1) 
-1.4296929264438325

>  <r_i_glide_ligand_efficiency_sa>  (1) 
-0.61660347267815541

>  <r_i_glide_lipo>  (1) 
-2.7638840066952999

>  <r_i_glide_metal>  (1) 
-0

>  <r_i_glide_rewards>  (1) 
-2.1626717046529049

>  <r_lp_Energy>  (1) 
30.893163999999999

>  <s_epik_cmdline>  (1) 
J2VwaWtfcHl0aG9uJywgJy1waHQnLCAnMS4wJywgJy1waCcsICc3LjQnLCAnLXRuJywgJzgnLCAnLW1hJywgJzUwMCcsICctaW1hZScsICc8aW5maWxlLm1hZT4nLCAnLW9tYWUnLCAnPG91dGZpbGUubWFlPic=

>  <s_epik_input>  (1) 
RkMoRikoRiljKFtjSF1bY0hdMSlbY0hdW2NIXWMxW05IXUMoPU8pW0NAXTIoW0NIM10pW0NASF0oW0NASF0yMylbTkhdQyg9TylbQ0BAXTMoW0NIM10pT1tDQEhdKFtDSDJdNClbQ0gyXUMoPVtDSDJdKVtDSDJdTjRbQ0BIXTVbQ0gyXVtDQEBIXTVbT0hd

>  <s_glide_docking_method>  (1) 
confgen

>  <s_i_glide_gridfile>  (1) 
gpcr_drd2_6luq_protein_autoprepared_prepared

>  <s_lp_Force_Field>  (1) 
S-OPLS

>  <s_lp_Variant>  (1) 
DiffSBDD_40_num_sample_100-3

>  <s_m_source_file>  (1) 
generated__ligand_DiffSBDD_2026-05-06_prepared.sdf

>  <GenAI_Model>  (1) 
DiffSBDD

>  <Protein>  (1) 
generic_title2

$$$$
DiffSBDD_90_num_sample_100
     RDKit          3D

  0  0  0  0  0  0  0  0  0  0999 V3000
M  V30 BEGIN CTAB
M  V30 COUNTS 61 65 0 0 1
M  V30 BEGIN ATOM
M  V30 1 C 4.792011 7.369443 -18.543989 0
M  V30 2 C 5.996431 6.362788 -15.700215 0
M  V30 3 C 11.434841 7.125872 -5.853384 0
M  V30 4 S 4.823227 7.623416 -20.267320 0
M  V30 5 C 8.037876 5.207095 -14.951194 0
M  V30 6 C 7.647246 5.600328 -17.310328 0
M  V30 7 C 8.460009 5.074481 -16.301279 0
M  V30 8 C 10.007649 6.698406 -6.249442 0
M  V30 9 C 10.964637 9.368908 -7.004154 0
M  V30 10 C 11.642893 9.367065 -4.575528 0
M  V30 11 N 9.840400 6.444634 -7.710956 0 CFG=2 CHG=1
M  V30 12 C 9.769786 7.695562 -8.517974 0
M  V30 13 C 9.326117 4.477827 -10.161647 0
M  V30 14 C 7.205667 5.474903 -12.267927 0
M  V30 15 C 6.468531 6.223971 -17.009826 0
M  V30 16 C 8.693519 5.510043 -7.932795 0
M  V30 17 C 6.331014 6.745208 -20.404253 0
M  V30 18 C 7.999027 5.567312 -18.854210 0
M  V30 19 C 8.847876 4.721495 -13.914039 0
M  V30 20 C 10.978223 8.629314 -8.351685 0
M  V30 21 N 6.722857 6.345361 -19.182252 0 CHG=1
M  V30 22 C 7.104159 6.467250 -21.649461 0
M  V30 23 C 11.734789 8.647187 -5.926644 0 CFG=1
M  V30 24 C 6.387265 5.967654 -13.310101 0
M  V30 25 C 6.798287 5.846034 -14.648201 0
M  V30 26 C 9.399914 4.330990 -11.512586 0
M  V30 27 C 8.273289 5.230139 -9.392124 0
M  V30 28 C 8.457852 4.855058 -12.564291 0
M  V30 29 C 5.901422 6.681002 -18.155818 0
M  V30 30 H 3.986080 7.760004 -17.939517 0
M  V30 31 H 5.062029 6.864061 -15.494815 0
M  V30 32 H 12.138626 6.569262 -6.474896 0
M  V30 33 H 11.629116 6.781335 -4.836230 0
M  V30 34 H 9.397631 4.594403 -16.542759 0
M  V30 35 H 9.258727 7.403916 -5.891407 0
M  V30 36 H 9.807155 5.769302 -5.720035 0
M  V30 37 H 11.436370 10.345648 -7.091437 0
M  V30 38 H 9.937672 9.534632 -6.690216 0
M  V30 39 H 10.634856 9.369835 -4.183116 0
M  V30 40 H 12.296653 8.918383 -3.825910 0
M  V30 41 H 11.929688 10.410692 -4.691546 0
M  V30 42 H 9.727598 7.447320 -9.577101 0
M  V30 43 H 8.857402 8.241146 -8.285380 0
M  V30 44 H 10.092155 4.018767 -9.556631 0
M  V30 45 H 6.861881 5.572780 -11.265362 0
M  V30 46 H 7.835187 5.858069 -7.367147 0
M  V30 47 H 8.957558 4.553547 -7.491745 0
M  V30 48 H 8.885852 6.144357 -19.118368 0
M  V30 49 H 7.973358 4.570500 -19.294913 0
M  V30 50 H 9.790083 4.255209 -14.149590 0
M  V30 51 H 11.918575 8.098861 -8.514354 0
M  V30 52 H 10.918908 9.371407 -9.147132 0
M  V30 53 H 8.083342 6.940213 -21.570168 0
M  V30 54 H 7.209966 5.388171 -21.766353 0
M  V30 55 H 12.742271 8.836439 -6.273400 0
M  V30 56 H 5.446278 6.443928 -13.075051 0
M  V30 57 H 10.234484 3.770885 -11.899330 0
M  V30 58 H 8.083866 6.169247 -9.877386 0
M  V30 59 H 7.359102 4.637319 -9.385835 0
M  V30 60 H 6.557409 6.879122 -22.497669 0
M  V30 61 H 10.664390 5.951687 -8.022053 0
M  V30 END ATOM
M  V30 BEGIN BOND
M  V30 1 1 4 1
M  V30 2 2 7 5
M  V30 3 1 7 6
M  V30 4 1 8 3
M  V30 5 1 11 8
M  V30 6 1 12 11
M  V30 7 1 15 2
M  V30 8 2 15 6
M  V30 9 1 16 11
M  V30 10 1 17 4
M  V30 11 1 18 6
M  V30 12 1 19 5
M  V30 13 1 20 9
M  V30 14 1 20 12
M  V30 15 2 21 17
M  V30 16 1 21 18
M  V30 17 1 22 17
M  V30 18 1 23 3
M  V30 19 1 23 9
M  V30 20 1 23 10
M  V30 21 2 24 14
M  V30 22 2 25 2
M  V30 23 1 25 5
M  V30 24 1 25 24
M  V30 25 2 26 13
M  V30 26 1 27 13
M  V30 27 1 27 16
M  V30 28 1 28 14
M  V30 29 2 28 19
M  V30 30 1 28 26
M  V30 31 2 29 1
M  V30 32 1 29 15
M  V30 33 1 29 21
M  V30 34 1 30 1
M  V30 35 1 31 2
M  V30 36 1 32 3
M  V30 37 1 33 3
M  V30 38 1 34 7
M  V30 39 1 35 8
M  V30 40 1 36 8
M  V30 41 1 37 9
M  V30 42 1 38 9
M  V30 43 1 39 10
M  V30 44 1 40 10
M  V30 45 1 41 10
M  V30 46 1 42 12
M  V30 47 1 43 12
M  V30 48 1 44 13
M  V30 49 1 45 14
M  V30 50 1 46 16
M  V30 51 1 47 16
M  V30 52 1 48 18
M  V30 53 1 49 18
M  V30 54 1 50 19
M  V30 55 1 51 20
M  V30 56 1 52 20
M  V30 57 1 53 22
M  V30 58 1 54 22
M  V30 59 1 23 55 CFG=3
M  V30 60 1 56 24
M  V30 61 1 57 26
M  V30 62 1 58 27
M  V30 63 1 59 27
M  V30 64 1 60 22
M  V30 65 1 11 61 CFG=3
M  V30 END BOND
M  V30 END CTAB
M  END
>  <i_epik_Tot_Q>  (1) 
2

>  <i_epik_Tot_abs_Q>  (1) 
2

>  <i_i_glide_confnum>  (1) 
34

>  <i_i_glide_lignum>  (1) 
183

>  <i_i_glide_posenum>  (1) 
283

>  <i_i_glide_rotatable_bonds>  (1) 
4

>  <i_lp_mmshare_version>  (1) 
72125

>  <i_m_source_file_index>  (1) 
91

>  <i_f3d_flags>  (1) 
0

>  <num_sample>  (1) 
100

>  <b_lp_Chiralities_Consistent>  (1) 
1

>  <r_epik_Charging_Adjusted_Penalty>  (1) 
0.0021252633397680827

>  <r_epik_Ionization_Penalty>  (1) 
0.002125263340211697

>  <r_epik_Ionization_Penalty_Charging>  (1) 
0.0021252633397680827

>  <r_epik_Ionization_Penalty_Neutral>  (1) 
4.4361447992621368e-13

>  <r_epik_State_Penalty>  (1) 
-0

>  <r_glide_ring_energy>  (1) 
0

>  <r_i_docking_score>  (1) 
-6.449069065540324

>  <r_i_glide_ecoul>  (1) 
-3.5195951530439533

>  <r_i_glide_eff_state_penalty>  (1) 
-0

>  <r_i_glide_einternal>  (1) 
1.3631117705825888

>  <r_i_glide_emodel>  (1) 
-45.648678290427291

>  <r_i_glide_emodel_strain>  (1) 
0.25425910297644805

>  <r_i_glide_energy>  (1) 
-29.597624318606115

>  <r_i_glide_erotb>  (1) 
0.47996519481946287

>  <r_i_glide_esite>  (1) 
-0.019275709643146378

>  <r_i_glide_evdw>  (1) 
-26.078029165562164

>  <r_i_glide_gscore>  (1) 
-6.449069065540324

>  <r_i_glide_gscore_strain>  (1) 
0

>  <r_i_glide_hbond>  (1) 
0

>  <r_i_glide_ligand_efficiency>  (1) 
-0.22238169191518359

>  <r_i_glide_ligand_efficiency_ln>  (1) 
-1.4766732817273558

>  <r_i_glide_ligand_efficiency_sa>  (1) 
-0.68322701379550499

>  <r_i_glide_lipo>  (1) 
-3.3626387282609445

>  <r_i_glide_metal>  (1) 
-0

>  <r_i_glide_rewards>  (1) 
-1.7152790912209941

>  <r_lp_Energy>  (1) 
52.418757999999997

>  <r_lp_tautomer_probability>  (1) 
1

>  <s_epik_cmdline>  (1) 
J2VwaWtfcHl0aG9uJywgJy1waHQnLCAnMS4wJywgJy1waCcsICc3LjQnLCAnLXRuJywgJzgnLCAnLW1hJywgJzUwMCcsICctaW1hZScsICc8aW5maWxlLm1hZT4nLCAnLW9tYWUnLCAnPG91dGZpbGUubWFlPic=

>  <s_epik_input>  (1) 
W0NIMl09QzFTW0NIXT1DMk4xW0NIMl1jKFtjSF0zKWMyW2NIXWMoYzM0KVtjSF1bY0hdYyhbY0hdNCkvW0NIXT1bQ0hdXFtDSDJdW0NIMl1ONVtDSDJdW0NIMl1bQ0BIXShbQ0gzXSlbQ0gyXVtDSDJdW0NIMl01

>  <s_glide_docking_method>  (1) 
confgen

>  <s_i_glide_gridfile>  (1) 
gpcr_drd2_6luq_protein_autoprepared_prepared

>  <s_lp_Force_Field>  (1) 
S-OPLS

>  <s_lp_Variant>  (1) 
DiffSBDD_90_num_sample_100-3

>  <s_m_source_file>  (1) 
generated__ligand_DiffSBDD_2026-05-06_prepared.sdf

>  <GenAI_Model>  (1) 
DiffSBDD

>  <Protein>  (1) 
generic_title2

$$$$
DiffSBDD_55_num_sample_100
     RDKit          3D

  0  0  0  0  0  0  0  0  0  0999 V3000
M  V30 BEGIN CTAB
M  V30 COUNTS 51 54 0 0 1
M  V30 BEGIN ATOM
M  V30 1 O 8.042753 2.926871 -13.698196 0
M  V30 2 C 10.041591 7.010518 -6.623113 0
M  V30 3 C 7.804071 5.112167 -11.456467 0
M  V30 4 C 10.352557 6.546466 -12.136901 0
M  V30 5 C 6.286818 5.603960 -13.867911 0 CFG=2
M  V30 6 C 6.061882 4.271132 -13.170554 0 CFG=1
M  V30 7 S 11.967008 8.169315 -8.156062 0
M  V30 8 C 10.968014 8.235866 -6.639514 0
M  V30 9 C 9.933070 6.539132 -8.065210 0
M  V30 10 C 6.962627 0.943463 -12.914999 0
M  V30 11 N 7.767773 6.531524 -11.922374 0 CFG=1 CHG=1
M  V30 12 C 6.670997 3.094618 -13.993755 0 CFG=2
M  V30 13 C 6.461882 4.372761 -11.682909 0 CFG=2
M  V30 14 C 6.050436 1.695870 -13.834162 0
M  V30 15 C 8.293246 1.628980 -13.182866 0
M  V30 16 C 9.705352 8.460542 -9.632369 0
M  V30 17 C 9.054966 7.317156 -11.857094 0 CFG=1
M  V30 18 C 10.643290 7.389378 -9.108576 0 CFG=1
M  V30 19 C 7.651445 6.021937 -14.386619 0
M  V30 20 O 9.318023 5.520062 -8.368139 0
M  V30 21 O 5.435205 5.048251 -10.978004 0
M  V30 22 C 9.029600 8.431378 -10.804736 0
M  V30 23 C 7.049127 6.755904 -13.217270 0 CFG=1
M  V30 24 H 10.469053 6.206728 -6.022934 0
M  V30 25 H 9.056291 7.246110 -6.219782 0
M  V30 26 H 8.040276 5.100071 -10.396647 0
M  V30 27 H 8.598940 4.560443 -11.953803 0
M  V30 28 H 11.232709 7.180295 -12.030792 0
M  V30 29 H 10.463466 5.684420 -11.492301 0
M  V30 30 H 10.367942 6.165547 -13.156405 0
M  V30 31 H 5.460810 5.882338 -14.519325 0
M  V30 32 H 4.983568 4.104126 -13.196810 0
M  V30 33 H 11.609402 8.275381 -5.759196 0
M  V30 34 H 10.373379 9.149103 -6.651693 0
M  V30 35 H 6.988325 -0.127599 -13.122081 0
M  V30 36 H 6.627743 1.067743 -11.891725 0
M  V30 37 H 6.602450 3.352294 -15.051671 0
M  V30 38 H 6.503807 3.369301 -11.269220 0
M  V30 39 H 5.016752 1.712335 -13.491056 0
M  V30 40 H 6.058568 1.193896 -14.802829 0
M  V30 41 H 8.873181 1.055522 -13.905653 0
M  V30 42 H 8.892604 1.765718 -12.291868 0
M  V30 43 H 9.576475 9.318089 -8.992104 0
M  V30 44 H 9.020812 7.976566 -12.721140 0
M  V30 45 H 11.090603 6.770096 -9.868132 0
M  V30 46 H 7.675402 6.540377 -15.342129 0
M  V30 47 H 8.493679 5.356651 -14.212173 0
M  V30 48 H 5.541169 4.913930 -10.042440 0
M  V30 49 H 8.391827 9.271337 -11.042177 0
M  V30 50 H 6.697591 7.769245 -13.361186 0
M  V30 51 H 7.174367 6.976039 -11.225523 0
M  V30 END ATOM
M  V30 BEGIN BOND
M  V30 1 1 6 5
M  V30 2 1 8 2
M  V30 3 1 8 7
M  V30 4 1 9 2
M  V30 5 1 11 3
M  V30 6 1 12 1
M  V30 7 1 12 6
M  V30 8 1 13 3
M  V30 9 1 13 6
M  V30 10 1 14 10
M  V30 11 1 14 12
M  V30 12 1 15 1
M  V30 13 1 15 10
M  V30 14 1 17 4
M  V30 15 1 17 11
M  V30 16 1 18 7
M  V30 17 1 18 9
M  V30 18 1 18 16
M  V30 19 1 19 5
M  V30 20 2 20 9
M  V30 21 1 21 13
M  V30 22 2 22 16
M  V30 23 1 22 17
M  V30 24 1 23 5
M  V30 25 1 23 11
M  V30 26 1 23 19
M  V30 27 1 24 2
M  V30 28 1 25 2
M  V30 29 1 26 3
M  V30 30 1 27 3
M  V30 31 1 28 4
M  V30 32 1 29 4
M  V30 33 1 30 4
M  V30 34 1 5 31 CFG=3
M  V30 35 1 6 32 CFG=1
M  V30 36 1 33 8
M  V30 37 1 34 8
M  V30 38 1 35 10
M  V30 39 1 36 10
M  V30 40 1 12 37 CFG=3
M  V30 41 1 13 38 CFG=1
M  V30 42 1 39 14
M  V30 43 1 40 14
M  V30 44 1 41 15
M  V30 45 1 42 15
M  V30 46 1 43 16
M  V30 47 1 17 44 CFG=3
M  V30 48 1 18 45 CFG=3
M  V30 49 1 46 19
M  V30 50 1 47 19
M  V30 51 1 48 21
M  V30 52 1 49 22
M  V30 53 1 23 50 CFG=3
M  V30 54 1 11 51 CFG=1
M  V30 END BOND
M  V30 END CTAB
M  END
>  <i_epik_Tot_Q>  (1) 
1

>  <i_epik_Tot_abs_Q>  (1) 
1

>  <i_i_glide_confnum>  (1) 
170

>  <i_i_glide_lignum>  (1) 
103

>  <i_i_glide_posenum>  (1) 
179

>  <i_i_glide_rotatable_bonds>  (1) 
5

>  <i_lp_mmshare_version>  (1) 
72125

>  <i_m_source_file_index>  (1) 
56

>  <i_f3d_flags>  (1) 
0

>  <num_sample>  (1) 
100

>  <b_lp_Chiralities_Consistent>  (1) 
1

>  <r_epik_Charging_Adjusted_Penalty>  (1) 
0.1887110856522376

>  <r_epik_Ionization_Penalty>  (1) 
0.094355642401006162

>  <r_epik_Ionization_Penalty_Charging>  (1) 
0.094355542826118813

>  <r_epik_Ionization_Penalty_Neutral>  (1) 
9.9574887353862298e-08

>  <r_epik_State_Penalty>  (1) 
0.094355542826118799

>  <r_glide_ring_energy>  (1) 
1.5487483858725037

>  <r_i_docking_score>  (1) 
-6.4316022302842253

>  <r_i_glide_ecoul>  (1) 
-5.601542697796833

>  <r_i_glide_eff_state_penalty>  (1) 
0.094355542826118799

>  <r_i_glide_einternal>  (1) 
9.0810712964866056

>  <r_i_glide_emodel>  (1) 
-45.369301459844522

>  <r_i_glide_emodel_strain>  (1) 
3.7211932462370925

>  <r_i_glide_energy>  (1) 
-38.713748689782761

>  <r_i_glide_erotb>  (1) 
0.49519417565235591

>  <r_i_glide_esite>  (1) 
-0.11682546926861595

>  <r_i_glide_evdw>  (1) 
-33.112205991985931

>  <r_i_glide_gscore>  (1) 
-6.5259577731103438

>  <r_i_glide_gscore_strain>  (1) 
0

>  <r_i_glide_hbond>  (1) 
-0.49722570990124321

>  <r_i_glide_ligand_efficiency>  (1) 
-0.27963487957757499

>  <r_i_glide_ligand_efficiency_ln>  (1) 
-1.5552197378274397

>  <r_i_glide_ligand_efficiency_sa>  (1) 
-0.79524440044543454

>  <r_i_glide_lipo>  (1) 
-1.9100733380512909

>  <r_i_glide_metal>  (1) 
-0

>  <r_i_glide_rewards>  (1) 
-2.0011857272727283

>  <r_lp_Energy>  (1) 
19.602328

>  <r_lp_tautomer_probability>  (1) 
0.99995000000000001

>  <s_epik_cmdline>  (1) 
J2VwaWtfcHl0aG9uJywgJy1waHQnLCAnMS4wJywgJy1waCcsICc3LjQnLCAnLXRuJywgJzgnLCAnLW1hJywgJzUwMCcsICctaW1hZScsICc8aW5maWxlLm1hZT4nLCAnLW9tYWUnLCAnPG91dGZpbGUubWFlPic=

>  <s_epik_input>  (1) 
W0NIMl0xW0NIMl1bQ0gyXU9bQ0BASF0xW0NASF0yW0NASF0oW09IXSlbQ0gyXU4oW0NASF0oW0NASF0yMylbQ0gyXTMpW0NASF0oW0NIM10pL1tDSF09W0NIXVxbQ0BIXTRTW0NIMl1bQ0gyXUM0PU8=

>  <s_glide_docking_method>  (1) 
confgen

>  <s_i_glide_gridfile>  (1) 
gpcr_drd2_6luq_protein_autoprepared_prepared

>  <s_lp_Force_Field>  (1) 
S-OPLS

>  <s_lp_Variant>  (1) 
DiffSBDD_55_num_sample_100-4

>  <s_m_source_file>  (1) 
generated__ligand_DiffSBDD_2026-05-06_prepared.sdf

>  <GenAI_Model>  (1) 
DiffSBDD

>  <Protein>  (1) 
generic_title2

$$$$
DiffSBDD_83_num_sample_100
     RDKit          3D

  0  0  0  0  0  0  0  0  0  0999 V3000
M  V30 BEGIN CTAB
M  V30 COUNTS 49 53 0 0 1
M  V30 BEGIN ATOM
M  V30 1 C 9.901879 7.154774 -10.022327 0
M  V30 2 C 6.612062 6.317662 -17.780964 0
M  V30 3 C 5.344434 6.436540 -15.702960 0 CFG=1
M  V30 4 C 6.155587 5.579872 -12.837549 0
M  V30 5 C 6.708213 6.569064 -15.084738 0 CFG=2
M  V30 6 N 7.156839 5.369301 -10.305794 0 CHG=1
M  V30 7 C 4.764276 7.457639 -16.652534 0
M  V30 8 C 11.075503 7.899021 -8.009543 0
M  V30 9 C 6.530693 5.775329 -16.366595 0 CFG=2
M  V30 10 C 7.017915 5.867523 -13.807123 0
M  V30 11 C 11.988635 8.903447 -7.314299 0
M  V30 12 C 8.589886 4.972337 -10.044537 0 CFG=1
M  V30 13 C 9.775312 5.834437 -7.974474 0
M  V30 14 C 8.247335 5.432432 -13.407501 0
M  V30 15 C 10.721008 8.094020 -9.362349 0
M  V30 16 C 5.305516 7.083784 -18.034199 0
M  V30 17 C 9.248906 4.420530 -11.356783 0
M  V30 18 C 10.594288 6.767996 -7.316163 0
M  V30 19 C 8.145468 4.862739 -12.218912 0
M  V30 20 C 11.841818 9.064350 -5.789847 0
M  V30 21 O 10.634842 9.708794 -5.491664 0
M  V30 22 C 6.742415 4.787178 -11.600792 0 CFG=2
M  V30 23 C 9.434837 6.017485 -9.329639 0
M  V30 24 H 9.642377 7.301292 -11.060732 0
M  V30 25 H 7.472833 6.969301 -17.891664 0
M  V30 26 H 6.732658 5.500337 -18.492205 0
M  V30 27 H 4.634843 5.769301 -15.229883 0
M  V30 28 H 5.105048 5.824408 -12.881853 0
M  V30 29 H 7.170752 7.552051 -15.137905 0
M  V30 30 H 6.556326 5.047709 -9.557643 0
M  V30 31 H 5.100859 8.452080 -16.355758 0
M  V30 32 H 3.674098 7.447074 -16.634971 0
M  V30 33 H 6.634841 4.695443 -16.278791 0
M  V30 34 H 11.834835 9.870337 -7.785292 0
M  V30 35 H 13.014753 8.613477 -7.542311 0
M  V30 36 H 8.500281 4.169303 -9.332848 0
M  V30 37 H 9.418211 4.969294 -7.442941 0
M  V30 38 H 9.170999 5.597151 -13.943095 0
M  V30 39 H 11.086340 8.959059 -9.896095 0
M  V30 40 H 5.434915 7.952805 -18.679753 0
M  V30 41 H 4.595297 6.418774 -18.527527 0
M  V30 42 H 10.203622 4.869990 -11.632193 0
M  V30 43 H 9.328221 3.333225 -11.358821 0
M  V30 44 H 10.858517 6.607719 -6.283763 0
M  V30 45 H 12.649039 9.691599 -5.409852 0
M  V30 46 H 11.895706 8.126351 -5.241997 0
M  V30 47 H 9.931506 9.199442 -5.868952 0
M  V30 48 H 6.397300 3.755352 -11.528547 0
M  V30 49 H 7.098939 6.390136 -10.305824 0
M  V30 END ATOM
M  V30 BEGIN BOND
M  V30 1 1 5 3
M  V30 2 1 7 3
M  V30 3 1 9 2
M  V30 4 1 9 3
M  V30 5 1 9 5
M  V30 6 2 10 4
M  V30 7 1 10 5
M  V30 8 1 11 8
M  V30 9 1 12 6
M  V30 10 1 14 10
M  V30 11 2 15 1
M  V30 12 1 15 8
M  V30 13 1 16 2
M  V30 14 1 16 7
M  V30 15 1 17 12
M  V30 16 2 18 8
M  V30 17 1 18 13
M  V30 18 2 19 14
M  V30 19 1 19 17
M  V30 20 1 20 11
M  V30 21 1 21 20
M  V30 22 1 22 4
M  V30 23 1 22 6
M  V30 24 1 22 19
M  V30 25 1 23 1
M  V30 26 1 23 12
M  V30 27 2 23 13
M  V30 28 1 24 1
M  V30 29 1 25 2
M  V30 30 1 26 2
M  V30 31 1 3 27 CFG=1
M  V30 32 1 28 4
M  V30 33 1 5 29 CFG=3
M  V30 34 1 30 6
M  V30 35 1 31 7
M  V30 36 1 32 7
M  V30 37 1 9 33 CFG=3
M  V30 38 1 34 11
M  V30 39 1 35 11
M  V30 40 1 12 36 CFG=1
M  V30 41 1 37 13
M  V30 42 1 38 14
M  V30 43 1 39 15
M  V30 44 1 40 16
M  V30 45 1 41 16
M  V30 46 1 42 17
M  V30 47 1 43 17
M  V30 48 1 44 18
M  V30 49 1 45 20
M  V30 50 1 46 20
M  V30 51 1 47 21
M  V30 52 1 22 48 CFG=1
M  V30 53 1 49 6
M  V30 END BOND
M  V30 END CTAB
M  END
>  <i_epik_Tot_Q>  (1) 
1

>  <i_epik_Tot_abs_Q>  (1) 
1

>  <i_i_glide_confnum>  (1) 
191

>  <i_i_glide_lignum>  (1) 
169

>  <i_i_glide_posenum>  (1) 
345

>  <i_i_glide_rotatable_bonds>  (1) 
5

>  <i_lp_mmshare_version>  (1) 
72125

>  <i_m_source_file_index>  (1) 
84

>  <i_f3d_flags>  (1) 
0

>  <num_sample>  (1) 
100

>  <b_lp_Chiralities_Consistent>  (1) 
1

>  <r_epik_Charging_Adjusted_Penalty>  (1) 
0.3591125196210796

>  <r_epik_Ionization_Penalty>  (1) 
0.17955633890062345

>  <r_epik_Ionization_Penalty_Charging>  (1) 
0.1795562598105398

>  <r_epik_Ionization_Penalty_Neutral>  (1) 
7.9090083639956194e-08

>  <r_epik_State_Penalty>  (1) 
0.1795562598105398

>  <r_glide_ring_energy>  (1) 
1.4396960314071907

>  <r_i_docking_score>  (1) 
-6.4178563615361197

>  <r_i_glide_ecoul>  (1) 
-6.0450771322187613

>  <r_i_glide_eff_state_penalty>  (1) 
0.1795562598105398

>  <r_i_glide_einternal>  (1) 
4.8596868410140015

>  <r_i_glide_emodel>  (1) 
-50.378608504176285

>  <r_i_glide_emodel_strain>  (1) 
0.60748255033243481

>  <r_i_glide_energy>  (1) 
-36.041487361569104

>  <r_i_glide_erotb>  (1) 
0.77787292059137758

>  <r_i_glide_esite>  (1) 
-0.10000000000000001

>  <r_i_glide_evdw>  (1) 
-29.996410229350342

>  <r_i_glide_gscore>  (1) 
-6.5974126213466597

>  <r_i_glide_gscore_strain>  (1) 
0

>  <r_i_glide_hbond>  (1) 
-0.19287618412237384

>  <r_i_glide_ligand_efficiency>  (1) 
-0.27903723311026607

>  <r_i_glide_ligand_efficiency_ln>  (1) 
-1.5518958621235011

>  <r_i_glide_ligand_efficiency_sa>  (1) 
-0.7935447733914297

>  <r_i_glide_lipo>  (1) 
-2.4697872992426024

>  <r_i_glide_metal>  (1) 
-0

>  <r_i_glide_rewards>  (1) 
-2.2060399772727286

>  <r_lp_Energy>  (1) 
33.157472999999996

>  <s_epik_cmdline>  (1) 
J2VwaWtfcHl0aG9uJywgJy1waHQnLCAnMS4wJywgJy1waCcsICc3LjQnLCAnLXRuJywgJzgnLCAnLW1hJywgJzUwMCcsICctaW1hZScsICc8aW5maWxlLm1hZT4nLCAnLW9tYWUnLCAnPG91dGZpbGUubWFlPic=

>  <s_epik_input>  (1) 
W09IXVtDSDJdW0NIMl1jMVtjSF1bY0hdYyhbY0hdW2NIXTEpW0NASF0oW0NIMl0yKVtOSF1bQ0BIXShDMjMpW0NIXT1DKFtDSF09MylbQ0BIXTRbQ0BASF0oW0NAQEhdNDUpW0NIMl1bQ0gyXVtDSDJdNQ==

>  <s_glide_docking_method>  (1) 
confgen

>  <s_i_glide_gridfile>  (1) 
gpcr_drd2_6luq_protein_autoprepared_prepared

>  <s_lp_Force_Field>  (1) 
S-OPLS

>  <s_lp_Variant>  (1) 
DiffSBDD_83_num_sample_100-1

>  <s_m_source_file>  (1) 
generated__ligand_DiffSBDD_2026-05-06_prepared.sdf

>  <GenAI_Model>  (1) 
DiffSBDD

>  <Protein>  (1) 
generic_title2

$$$$
DiffSBDD_83_num_sample_100
     RDKit          3D

  0  0  0  0  0  0  0  0  0  0999 V3000
M  V30 BEGIN CTAB
M  V30 COUNTS 49 53 0 0 1
M  V30 BEGIN ATOM
M  V30 1 C 9.505340 6.167405 -8.105142 0
M  V30 2 C 4.989796 6.245034 -17.161651 0
M  V30 3 C 5.826822 7.404207 -15.167247 0 CFG=1
M  V30 4 C 6.053340 5.392057 -12.803774 0
M  V30 5 C 6.682178 6.158125 -15.105037 0 CFG=2
M  V30 6 N 7.018503 5.369301 -10.291670 0 CHG=1
M  V30 7 C 5.772536 8.374472 -16.301947 0
M  V30 8 C 10.904813 8.097913 -8.591529 0
M  V30 9 C 5.285866 6.124377 -15.687762 0 CFG=2
M  V30 10 C 6.934771 5.526015 -13.786607 0
M  V30 11 C 11.823489 9.186664 -8.121246 0
M  V30 12 C 8.404182 4.866661 -9.967290 0 CFG=1
M  V30 13 C 9.834824 6.900250 -10.411277 0
M  V30 14 C 8.121980 5.024540 -13.347174 0
M  V30 15 C 10.323575 7.215568 -7.659088 0
M  V30 16 C 5.643073 7.555212 -17.592172 0
M  V30 17 C 9.031001 4.126931 -11.206875 0
M  V30 18 C 10.653969 7.941244 -9.964516 0
M  V30 19 C 7.971000 4.571147 -12.116019 0
M  V30 20 C 13.207676 8.569301 -7.953019 0
M  V30 21 O 13.834835 8.369898 -9.199682 0
M  V30 22 C 6.566985 4.670993 -11.506834 0 CFG=2
M  V30 23 C 9.266540 6.002505 -9.483434 0
M  V30 24 H 9.066090 5.485132 -7.391998 0
M  V30 25 H 5.370826 5.386909 -17.716336 0
M  V30 26 H 3.908947 6.297126 -17.298866 0
M  V30 27 H 5.432847 7.769301 -14.222369 0
M  V30 28 H 5.034833 5.725139 -12.871490 0
M  V30 29 H 7.522431 6.086095 -15.794345 0
M  V30 30 H 6.393044 5.172830 -9.520739 0
M  V30 31 H 6.634840 9.021696 -16.291654 0
M  V30 32 H 4.879035 8.969298 -16.147939 0
M  V30 33 H 4.471579 5.769281 -15.085756 0
M  V30 34 H 11.459590 9.578885 -7.170482 0
M  V30 35 H 11.834839 10.006528 -8.840414 0
M  V30 36 H 8.290889 4.169300 -9.143976 0
M  V30 37 H 9.649820 6.779994 -11.468130 0
M  V30 38 H 9.057725 5.069951 -13.886891 0
M  V30 39 H 10.518319 7.336542 -6.602940 0
M  V30 40 H 6.636175 7.350060 -17.992172 0
M  V30 41 H 5.076394 8.075168 -18.364970 0
M  V30 42 H 10.023269 4.462687 -11.509073 0
M  V30 43 H 9.034841 3.044269 -11.113350 0
M  V30 44 H 11.103233 8.614356 -10.676634 0
M  V30 45 H 13.096205 7.592829 -7.491671 0
M  V30 46 H 13.834832 9.194234 -7.316920 0
M  V30 47 H 14.120110 9.223999 -9.516857 0
M  V30 48 H 6.136578 3.685248 -11.327405 0
M  V30 49 H 7.043592 6.383885 -10.395580 0
M  V30 END ATOM
M  V30 BEGIN BOND
M  V30 1 1 5 3
M  V30 2 1 7 3
M  V30 3 1 9 2
M  V30 4 1 9 3
M  V30 5 1 9 5
M  V30 6 2 10 4
M  V30 7 1 10 5
M  V30 8 1 11 8
M  V30 9 1 12 6
M  V30 10 1 14 10
M  V30 11 2 15 1
M  V30 12 1 15 8
M  V30 13 1 16 2
M  V30 14 1 16 7
M  V30 15 1 17 12
M  V30 16 2 18 8
M  V30 17 1 18 13
M  V30 18 2 19 14
M  V30 19 1 19 17
M  V30 20 1 20 11
M  V30 21 1 21 20
M  V30 22 1 22 4
M  V30 23 1 22 6
M  V30 24 1 22 19
M  V30 25 1 23 1
M  V30 26 1 23 12
M  V30 27 2 23 13
M  V30 28 1 24 1
M  V30 29 1 25 2
M  V30 30 1 26 2
M  V30 31 1 3 27 CFG=1
M  V30 32 1 28 4
M  V30 33 1 5 29 CFG=3
M  V30 34 1 30 6
M  V30 35 1 31 7
M  V30 36 1 32 7
M  V30 37 1 9 33 CFG=1
M  V30 38 1 34 11
M  V30 39 1 35 11
M  V30 40 1 12 36 CFG=1
M  V30 41 1 37 13
M  V30 42 1 38 14
M  V30 43 1 39 15
M  V30 44 1 40 16
M  V30 45 1 41 16
M  V30 46 1 42 17
M  V30 47 1 43 17
M  V30 48 1 44 18
M  V30 49 1 45 20
M  V30 50 1 46 20
M  V30 51 1 47 21
M  V30 52 1 22 48 CFG=1
M  V30 53 1 49 6
M  V30 END BOND
M  V30 END CTAB
M  END
>  <i_epik_Tot_Q>  (1) 
1

>  <i_epik_Tot_abs_Q>  (1) 
1

>  <i_i_glide_confnum>  (1) 
282

>  <i_i_glide_lignum>  (1) 
169

>  <i_i_glide_posenum>  (1) 
167

>  <i_i_glide_rotatable_bonds>  (1) 
5

>  <i_lp_mmshare_version>  (1) 
72125

>  <i_m_source_file_index>  (1) 
84

>  <i_f3d_flags>  (1) 
0

>  <num_sample>  (1) 
100

>  <b_lp_Chiralities_Consistent>  (1) 
1

>  <r_epik_Charging_Adjusted_Penalty>  (1) 
0.3591125196210796

>  <r_epik_Ionization_Penalty>  (1) 
0.17955633890062345

>  <r_epik_Ionization_Penalty_Charging>  (1) 
0.1795562598105398

>  <r_epik_Ionization_Penalty_Neutral>  (1) 
7.9090083639956194e-08

>  <r_epik_State_Penalty>  (1) 
0.1795562598105398

>  <r_glide_ring_energy>  (1) 
0

>  <r_i_docking_score>  (1) 
-6.4116699436078255

>  <r_i_glide_ecoul>  (1) 
-10.720217583149878

>  <r_i_glide_eff_state_penalty>  (1) 
0.1795562598105398

>  <r_i_glide_einternal>  (1) 
2.0423816140371267

>  <r_i_glide_emodel>  (1) 
-49.504844805398669

>  <r_i_glide_emodel_strain>  (1) 
0.042023986095188093

>  <r_i_glide_energy>  (1) 
-33.209904567626936

>  <r_i_glide_erotb>  (1) 
0.77787292059137758

>  <r_i_glide_esite>  (1) 
-0.10000000000000001

>  <r_i_glide_evdw>  (1) 
-22.489686984477057

>  <r_i_glide_gscore>  (1) 
-6.5912262034183655

>  <r_i_glide_gscore_strain>  (1) 
0

>  <r_i_glide_hbond>  (1) 
-0.47865952649234533

>  <r_i_glide_ligand_efficiency>  (1) 
-0.27876825841773156

>  <r_i_glide_ligand_efficiency_ln>  (1) 
-1.5503999301731031

>  <r_i_glide_ligand_efficiency_sa>  (1) 
-0.79277984514491495

>  <r_i_glide_lipo>  (1) 
-1.8518826335483343

>  <r_i_glide_metal>  (1) 
-0

>  <r_i_glide_rewards>  (1) 
-2.2060399772727286

>  <r_lp_Energy>  (1) 
33.157472999999996

>  <s_epik_cmdline>  (1) 
J2VwaWtfcHl0aG9uJywgJy1waHQnLCAnMS4wJywgJy1waCcsICc3LjQnLCAnLXRuJywgJzgnLCAnLW1hJywgJzUwMCcsICctaW1hZScsICc8aW5maWxlLm1hZT4nLCAnLW9tYWUnLCAnPG91dGZpbGUubWFlPic=

>  <s_epik_input>  (1) 
W09IXVtDSDJdW0NIMl1jMVtjSF1bY0hdYyhbY0hdW2NIXTEpW0NASF0oW0NIMl0yKVtOSF1bQ0BIXShDMjMpW0NIXT1DKFtDSF09MylbQ0BIXTRbQ0BASF0oW0NAQEhdNDUpW0NIMl1bQ0gyXVtDSDJdNQ==

>  <s_glide_docking_method>  (1) 
confgen

>  <s_i_glide_gridfile>  (1) 
gpcr_drd2_6luq_protein_autoprepared_prepared

>  <s_lp_Force_Field>  (1) 
S-OPLS

>  <s_lp_Variant>  (1) 
DiffSBDD_83_num_sample_100-1

>  <s_m_source_file>  (1) 
generated__ligand_DiffSBDD_2026-05-06_prepared.sdf

>  <GenAI_Model>  (1) 
DiffSBDD

>  <Protein>  (1) 
generic_title2

$$$$
DiffSBDD_29_num_sample_100
     RDKit          3D

  0  0  0  0  0  0  0  0  0  0999 V3000
M  V30 BEGIN CTAB
M  V30 COUNTS 73 77 0 0 1
M  V30 BEGIN ATOM
M  V30 1 F 11.429188 9.256995 -8.450351 0
M  V30 2 O 9.056576 3.228832 -12.691416 0
M  V30 3 N 5.956963 6.353549 -13.193340 0
M  V30 4 C 9.157916 3.682635 -16.758215 0
M  V30 5 N 11.305691 9.803437 -4.844674 0
M  V30 6 C 12.278314 9.052574 -2.705205 0
M  V30 7 C 8.738837 5.624671 -12.363556 0 CFG=1
M  V30 8 C 12.386978 6.624178 -2.390210 0
M  V30 9 C 11.730934 8.817622 -3.969011 0
M  V30 10 C 5.666348 5.984968 -11.873370 0
M  V30 11 C 7.243513 3.163814 -15.031926 0
M  V30 12 N 8.636062 6.169302 -9.966691 0
M  V30 13 C 9.003156 5.679174 -18.253938 0 CFG=2
M  V30 14 O 9.312220 6.208541 -19.525481 0
M  V30 15 O 7.835158 5.368946 -7.610903 0
M  V30 16 C 7.064799 6.101815 -15.440266 0
M  V30 17 C 7.034670 5.162312 -16.668769 0 CFG=2
M  V30 18 C 10.866571 9.136591 -6.141656 0 CFG=2
M  V30 19 C 10.612080 6.593912 -6.489139 0
M  V30 20 C 10.234345 5.954860 -12.276428 0
M  V30 21 C 6.511372 5.526894 -10.914490 0
M  V30 22 C 8.595215 4.419499 -13.303758 0 CFG=2
M  V30 23 N 10.046402 6.718646 -7.774507 0
M  V30 24 C 11.834665 6.445754 -3.684145 0
M  V30 25 C 10.987237 7.650312 -5.733174 0
M  V30 26 C 7.651894 3.762041 -16.413356 0 CFG=1
M  V30 27 C 12.616222 7.942705 -1.900338 0
M  V30 28 C 9.459418 4.220952 -18.160805 0
M  V30 29 F 11.834826 10.920125 -7.091351 0
M  V30 30 C 6.408277 5.407729 -14.227326 0 CFG=1
M  V30 31 C 7.491914 5.798325 -17.999231 0
M  V30 32 C 8.023803 5.355115 -11.015396 0 CFG=1
M  V30 33 C 7.187470 4.142681 -13.824349 0 CFG=1
M  V30 34 C 11.823224 9.594979 -7.222710 0
M  V30 35 C 11.530034 7.582603 -4.438170 0
M  V30 36 O 9.834918 4.282306 -8.691677 0
M  V30 37 S 9.035401 5.476594 -8.440622 0
M  V30 38 H 8.586958 3.084236 -11.885459 0
M  V30 39 H 9.772260 4.250962 -16.066937 0
M  V30 40 H 9.500130 2.649297 -16.690155 0
M  V30 41 H 11.766400 10.700915 -4.865472 0
M  V30 42 H 12.423550 10.059596 -2.345083 0
M  V30 43 H 8.342347 6.533996 -12.808197 0
M  V30 44 H 12.634855 5.767306 -1.781189 0
M  V30 45 H 4.635866 6.132604 -11.628773 0
M  V30 46 H 6.244276 2.749459 -15.137775 0
M  V30 47 H 7.867484 2.298657 -14.805657 0
M  V30 48 H 8.007320 6.988577 -9.811458 0
M  V30 49 H 9.552470 6.245894 -17.504685 0
M  V30 50 H 8.867571 5.699117 -20.186820 0
M  V30 51 H 8.082078 6.409518 -15.206689 0
M  V30 52 H 6.515319 7.014389 -15.679305 0
M  V30 53 H 5.976229 4.982420 -16.831818 0
M  V30 54 H 9.831355 9.366512 -6.378492 0
M  V30 55 H 10.706964 5.578203 -6.157757 0
M  V30 56 H 10.753544 5.088790 -11.891684 0
M  V30 57 H 10.448222 6.820295 -11.649840 0
M  V30 58 H 10.659357 6.160142 -13.257815 0
M  V30 59 H 9.252827 4.610480 -14.140968 0
M  V30 60 H 9.815455 7.660165 -8.089709 0
M  V30 61 H 11.658338 5.457953 -4.077779 0
M  V30 62 H 7.188212 3.101807 -17.149786 0
M  V30 63 H 13.035355 8.095852 -0.917871 0
M  V30 64 H 8.963557 3.612266 -18.918146 0
M  V30 65 H 10.530424 4.156419 -18.356748 0
M  V30 66 H 5.446815 5.037116 -14.585967 0
M  V30 67 H 7.176491 6.842353 -18.044368 0
M  V30 68 H 6.964825 5.298694 -18.812894 0
M  V30 69 H 8.190775 4.323867 -10.715750 0
M  V30 70 H 6.626330 3.646291 -13.031259 0
M  V30 71 H 12.840149 9.227942 -7.072675 0
M  V30 72 H 6.096934 5.306876 -9.941214 0
M  V30 73 H 5.307469 7.023412 -13.582818 0
M  V30 END ATOM
M  V30 BEGIN BOND
M  V30 1 1 9 5
M  V30 2 2 9 6
M  V30 3 1 10 3
M  V30 4 1 14 13
M  V30 5 1 17 16
M  V30 6 1 18 5
M  V30 7 1 20 7
M  V30 8 2 21 10
M  V30 9 1 22 2
M  V30 10 1 22 7
M  V30 11 1 23 19
M  V30 12 1 24 8
M  V30 13 1 25 18
M  V30 14 2 25 19
M  V30 15 1 26 4
M  V30 16 1 26 11
M  V30 17 1 26 17
M  V30 18 1 27 6
M  V30 19 2 27 8
M  V30 20 1 28 4
M  V30 21 1 28 13
M  V30 22 1 30 3
M  V30 23 1 30 16
M  V30 24 1 31 13
M  V30 25 1 31 17
M  V30 26 1 32 7
M  V30 27 1 32 12
M  V30 28 1 32 21
M  V30 29 1 33 11
M  V30 30 1 33 22
M  V30 31 1 33 30
M  V30 32 1 34 1
M  V30 33 1 34 18
M  V30 34 1 34 29
M  V30 35 1 35 9
M  V30 36 2 35 24
M  V30 37 1 35 25
M  V30 38 1 37 12
M  V30 39 2 37 15
M  V30 40 1 37 23
M  V30 41 2 37 36
M  V30 42 1 38 2
M  V30 43 1 39 4
M  V30 44 1 40 4
M  V30 45 1 41 5
M  V30 46 1 42 6
M  V30 47 1 7 43 CFG=3
M  V30 48 1 44 8
M  V30 49 1 45 10
M  V30 50 1 46 11
M  V30 51 1 47 11
M  V30 52 1 48 12
M  V30 53 1 13 49 CFG=1
M  V30 54 1 50 14
M  V30 55 1 51 16
M  V30 56 1 52 16
M  V30 57 1 17 53 CFG=3
M  V30 58 1 18 54 CFG=3
M  V30 59 1 55 19
M  V30 60 1 56 20
M  V30 61 1 57 20
M  V30 62 1 58 20
M  V30 63 1 22 59 CFG=3
M  V30 64 1 60 23
M  V30 65 1 61 24
M  V30 66 1 26 62 CFG=3
M  V30 67 1 63 27
M  V30 68 1 64 28
M  V30 69 1 65 28
M  V30 70 1 30 66 CFG=3
M  V30 71 1 67 31
M  V30 72 1 68 31
M  V30 73 1 32 69 CFG=1
M  V30 74 1 33 70 CFG=1
M  V30 75 1 71 34
M  V30 76 1 72 21
M  V30 77 1 73 3
M  V30 END BOND
M  V30 END CTAB
M  END
>  <i_epik_Tot_Q>  (1) 
0

>  <i_epik_Tot_abs_Q>  (1) 
0

>  <i_i_glide_confnum>  (1) 
14

>  <i_i_glide_lignum>  (1) 
53

>  <i_i_glide_posenum>  (1) 
289

>  <i_i_glide_rotatable_bonds>  (1) 
7

>  <i_lp_mmshare_version>  (1) 
72125

>  <i_m_source_file_index>  (1) 
30

>  <i_f3d_flags>  (1) 
0

>  <num_sample>  (1) 
100

>  <b_lp_Chiralities_Consistent>  (1) 
1

>  <r_epik_Charging_Adjusted_Penalty>  (1) 
1.5459132844328078e-07

>  <r_epik_Ionization_Penalty>  (1) 
1.5952634643945804

>  <r_epik_Ionization_Penalty_Charging>  (1) 
1.5459132844328078e-07

>  <r_epik_Ionization_Penalty_Neutral>  (1) 
1.595263309803252

>  <r_epik_State_Penalty>  (1) 
-0

>  <r_glide_ring_energy>  (1) 
0

>  <r_i_docking_score>  (1) 
-6.40148470579574

>  <r_i_glide_ecoul>  (1) 
-6.531475523493115

>  <r_i_glide_eff_state_penalty>  (1) 
-0

>  <r_i_glide_einternal>  (1) 
2.5419041138383456

>  <r_i_glide_emodel>  (1) 
-34.097077196940916

>  <r_i_glide_emodel_strain>  (1) 
1.5060370289673983

>  <r_i_glide_energy>  (1) 
-32.153474288812717

>  <r_i_glide_erotb>  (1) 
0.28486469644810641

>  <r_i_glide_esite>  (1) 
-0.18307340167896663

>  <r_i_glide_evdw>  (1) 
-25.621998765319603

>  <r_i_glide_gscore>  (1) 
-6.40148470579574

>  <r_i_glide_gscore_strain>  (1) 
0

>  <r_i_glide_hbond>  (1) 
-0.12157464415433492

>  <r_i_glide_ligand_efficiency>  (1) 
-0.17301310015664162

>  <r_i_glide_ligand_efficiency_ln>  (1) 
-1.3883319605932172

>  <r_i_glide_ligand_efficiency_sa>  (1) 
-0.57651803296297122

>  <r_i_glide_lipo>  (1) 
-3.5440668536457101

>  <r_i_glide_metal>  (1) 
-0

>  <r_i_glide_rewards>  (1) 
-0.57681323597488765

>  <r_lp_Energy>  (1) 
49.148054999999999

>  <r_lp_tautomer_probability>  (1) 
1

>  <s_epik_Chemistry_Notes>  (1) 
This compound has an imine and may undergo hydrolysis.

>  <s_epik_cmdline>  (1) 
J2VwaWtfcHl0aG9uJywgJy1waHQnLCAnMS4wJywgJy1waCcsICc3LjQnLCAnLXRuJywgJzgnLCAnLW1hJywgJzUwMCcsICctaW1hZScsICc8aW5maWxlLm1hZT4nLCAnLW9tYWUnLCAnPG91dGZpbGUubWFlPic=

>  <s_epik_input>  (1) 
W2NIXTFbY0hdW2NIXVtjSF1jKGMxMilDKFxbQ0BASF0oW05IXTIpW0NIXShGKUYpPVtDSF1cW05IXVMoPU8pKD1PKVtOSF1bQ0BIXShbQ0BASF0oW0NIM10pW0NASF0zW09IXSlbQ0gyXVxbQ0hdPU5cW0NAQEhdKFtDSDJdNClbQ0BIXTNbQ0gyXVtDQEBIXShbQ0BASF00NSlbQ0gyXVtDSDJdW0NASF0oW09IXSlbQ0gyXTU=

>  <s_glide_docking_method>  (1) 
confgen

>  <s_i_glide_gridfile>  (1) 
gpcr_drd2_6luq_protein_autoprepared_prepared

>  <s_lp_Force_Field>  (1) 
S-OPLS

>  <s_lp_Variant>  (1) 
DiffSBDD_29_num_sample_100-3

>  <s_m_source_file>  (1) 
generated__ligand_DiffSBDD_2026-05-06_prepared.sdf

>  <GenAI_Model>  (1) 
DiffSBDD

>  <Protein>  (1) 
generic_title2

$$$$
DiffSBDD_90_num_sample_100
     RDKit          3D

  0  0  0  0  0  0  0  0  0  0999 V3000
M  V30 BEGIN CTAB
M  V30 COUNTS 61 65 0 0 1
M  V30 BEGIN ATOM
M  V30 1 C 5.034846 5.920866 -19.126541 0
M  V30 2 C 6.279620 6.272945 -16.161437 0
M  V30 3 C 11.495993 6.566486 -4.561240 0
M  V30 4 S 4.943337 5.249638 -20.731038 0
M  V30 5 C 8.203277 5.370541 -14.912326 0
M  V30 6 C 7.730334 4.609638 -17.169928 0
M  V30 7 C 8.529828 4.536149 -16.018930 0
M  V30 8 C 10.348091 6.927454 -5.533516 0
M  V30 9 C 11.941986 9.136593 -4.274882 0
M  V30 10 C 12.062455 7.573475 -2.248665 0
M  V30 11 N 10.797240 7.494578 -6.831765 0 CFG=2 CHG=1
M  V30 12 C 11.009979 8.961502 -6.717701 0
M  V30 13 C 9.526094 7.195852 -10.503931 0
M  V30 14 C 7.571905 7.081752 -12.754872 0
M  V30 15 C 6.657445 5.455783 -17.226355 0
M  V30 16 C 9.849389 7.176625 -7.948082 0
M  V30 17 C 6.339615 4.234917 -20.421750 0
M  V30 18 C 7.973990 3.771499 -18.496231 0
M  V30 19 C 9.010556 5.369353 -13.755946 0
M  V30 20 C 12.150814 9.388560 -5.782610 0
M  V30 21 N 6.774525 4.450744 -19.167896 0 CHG=1
M  V30 22 C 6.983462 3.272719 -21.362918 0
M  V30 23 C 12.214702 7.703401 -3.778882 0 CFG=1
M  V30 24 C 6.748805 7.065450 -13.898463 0
M  V30 25 C 7.066740 6.237171 -14.984630 0
M  V30 26 C 9.642728 6.316599 -11.522385 0
M  V30 27 C 10.502000 7.291292 -9.340842 0
M  V30 28 C 8.719361 6.247594 -12.681493 0
M  V30 29 C 6.076404 5.363772 -18.447546 0
M  V30 30 H 4.328121 6.668503 -18.794425 0
M  V30 31 H 5.425700 6.929780 -16.240130 0
M  V30 32 H 12.234617 5.983934 -5.109385 0
M  V30 33 H 11.092086 5.862190 -3.833089 0
M  V30 34 H 9.385609 3.878415 -15.983054 0
M  V30 35 H 9.639608 7.614219 -5.091554 0
M  V30 36 H 9.784300 6.015448 -5.715636 0
M  V30 37 H 12.644242 9.777750 -3.741933 0
M  V30 38 H 10.957936 9.479667 -3.965413 0
M  V30 39 H 11.034954 7.603852 -1.893882 0
M  V30 40 H 12.489398 6.632396 -1.898278 0
M  V30 41 H 12.603756 8.370938 -1.738648 0
M  V30 42 H 11.252740 9.369110 -7.695914 0
M  V30 43 H 10.076197 9.427738 -6.415122 0
M  V30 44 H 8.711742 7.897758 -10.492001 0
M  V30 45 H 7.329535 7.747354 -11.942989 0
M  V30 46 H 8.985040 7.838121 -7.884035 0
M  V30 47 H 9.466666 6.159177 -7.851721 0
M  V30 48 H 8.897609 4.013123 -19.022707 0
M  V30 49 H 7.798664 2.701573 -18.386294 0
M  V30 50 H 9.880410 4.731969 -13.708439 0
M  V30 51 H 13.081048 8.969308 -6.143647 0
M  V30 52 H 12.267072 10.465684 -5.909215 0
M  V30 53 H 6.942796 2.276052 -20.924586 0
M  V30 54 H 6.441250 3.291410 -22.308480 0
M  V30 55 H 13.285980 7.553145 -3.891607 0
M  V30 56 H 5.886320 7.714893 -13.950044 0
M  V30 57 H 10.459674 5.620600 -11.523958 0
M  V30 58 H 11.306690 6.569613 -9.437844 0
M  V30 59 H 10.968002 8.264896 -9.468871 0
M  V30 60 H 8.018565 3.577094 -21.517324 0
M  V30 61 H 11.675592 7.053649 -7.065135 0
M  V30 END ATOM
M  V30 BEGIN BOND
M  V30 1 1 4 1
M  V30 2 2 7 5
M  V30 3 1 7 6
M  V30 4 1 8 3
M  V30 5 1 11 8
M  V30 6 1 12 11
M  V30 7 1 15 2
M  V30 8 2 15 6
M  V30 9 1 16 11
M  V30 10 1 17 4
M  V30 11 1 18 6
M  V30 12 1 19 5
M  V30 13 1 20 9
M  V30 14 1 20 12
M  V30 15 2 21 17
M  V30 16 1 21 18
M  V30 17 1 22 17
M  V30 18 1 23 3
M  V30 19 1 23 9
M  V30 20 1 23 10
M  V30 21 2 24 14
M  V30 22 2 25 2
M  V30 23 1 25 5
M  V30 24 1 25 24
M  V30 25 2 26 13
M  V30 26 1 27 13
M  V30 27 1 27 16
M  V30 28 1 28 14
M  V30 29 2 28 19
M  V30 30 1 28 26
M  V30 31 2 29 1
M  V30 32 1 29 15
M  V30 33 1 29 21
M  V30 34 1 30 1
M  V30 35 1 31 2
M  V30 36 1 32 3
M  V30 37 1 33 3
M  V30 38 1 34 7
M  V30 39 1 35 8
M  V30 40 1 36 8
M  V30 41 1 37 9
M  V30 42 1 38 9
M  V30 43 1 39 10
M  V30 44 1 40 10
M  V30 45 1 41 10
M  V30 46 1 42 12
M  V30 47 1 43 12
M  V30 48 1 44 13
M  V30 49 1 45 14
M  V30 50 1 46 16
M  V30 51 1 47 16
M  V30 52 1 48 18
M  V30 53 1 49 18
M  V30 54 1 50 19
M  V30 55 1 51 20
M  V30 56 1 52 20
M  V30 57 1 53 22
M  V30 58 1 54 22
M  V30 59 1 23 55 CFG=1
M  V30 60 1 56 24
M  V30 61 1 57 26
M  V30 62 1 58 27
M  V30 63 1 59 27
M  V30 64 1 60 22
M  V30 65 1 11 61 CFG=3
M  V30 END BOND
M  V30 END CTAB
M  END
>  <i_epik_Tot_Q>  (1) 
2

>  <i_epik_Tot_abs_Q>  (1) 
2

>  <i_i_glide_confnum>  (1) 
327

>  <i_i_glide_lignum>  (1) 
181

>  <i_i_glide_posenum>  (1) 
214

>  <i_i_glide_rotatable_bonds>  (1) 
4

>  <i_lp_mmshare_version>  (1) 
72125

>  <i_m_source_file_index>  (1) 
91

>  <i_f3d_flags>  (1) 
0

>  <num_sample>  (1) 
100

>  <b_lp_Chiralities_Consistent>  (1) 
1

>  <r_epik_Charging_Adjusted_Penalty>  (1) 
0.0021252633397680827

>  <r_epik_Ionization_Penalty>  (1) 
0.002125263340211697

>  <r_epik_Ionization_Penalty_Charging>  (1) 
0.0021252633397680827

>  <r_epik_Ionization_Penalty_Neutral>  (1) 
4.4361447992621368e-13

>  <r_epik_State_Penalty>  (1) 
-0

>  <r_glide_ring_energy>  (1) 
1.3057676050237765

>  <r_i_docking_score>  (1) 
-6.3903313844553482

>  <r_i_glide_ecoul>  (1) 
-1.8616116489099266

>  <r_i_glide_eff_state_penalty>  (1) 
-0

>  <r_i_glide_einternal>  (1) 
2.3146200174244136

>  <r_i_glide_emodel>  (1) 
-45.304994113716539

>  <r_i_glide_emodel_strain>  (1) 
0.54572060425599034

>  <r_i_glide_energy>  (1) 
-33.533903876548045

>  <r_i_glide_erotb>  (1) 
0.47996519481946287

>  <r_i_glide_esite>  (1) 
0

>  <r_i_glide_evdw>  (1) 
-31.67229222763812

>  <r_i_glide_gscore>  (1) 
-6.3903313844553482

>  <r_i_glide_gscore_strain>  (1) 
0

>  <r_i_glide_hbond>  (1) 
0

>  <r_i_glide_ligand_efficiency>  (1) 
-0.22035625463639133

>  <r_i_glide_ligand_efficiency_ln>  (1) 
-1.4632238422179746

>  <r_i_glide_ligand_efficiency_sa>  (1) 
-0.67700422876450017

>  <r_i_glide_lipo>  (1) 
-3.377941191600649

>  <r_i_glide_metal>  (1) 
-0

>  <r_i_glide_rewards>  (1) 
-1.6294990289557663

>  <r_lp_Energy>  (1) 
49.609797999999998

>  <r_lp_tautomer_probability>  (1) 
1

>  <s_epik_cmdline>  (1) 
J2VwaWtfcHl0aG9uJywgJy1waHQnLCAnMS4wJywgJy1waCcsICc3LjQnLCAnLXRuJywgJzgnLCAnLW1hJywgJzUwMCcsICctaW1hZScsICc8aW5maWxlLm1hZT4nLCAnLW9tYWUnLCAnPG91dGZpbGUubWFlPic=

>  <s_epik_input>  (1) 
W0NIMl09QzFTW0NIXT1DMk4xW0NIMl1jKFtjSF0zKWMyW2NIXWMoYzM0KVtjSF1bY0hdYyhbY0hdNClcW0NIXT1bQ0hdXFtDSDJdW0NIMl1ONVtDSDJdW0NIMl1bQ0BIXShbQ0gzXSlbQ0gyXVtDSDJdW0NIMl01

>  <s_glide_docking_method>  (1) 
confgen

>  <s_i_glide_gridfile>  (1) 
gpcr_drd2_6luq_protein_autoprepared_prepared

>  <s_lp_Force_Field>  (1) 
S-OPLS

>  <s_lp_Variant>  (1) 
DiffSBDD_90_num_sample_100-1

>  <s_m_source_file>  (1) 
generated__ligand_DiffSBDD_2026-05-06_prepared.sdf

>  <GenAI_Model>  (1) 
DiffSBDD

>  <Protein>  (1) 
generic_title2

$$$$
DiffSBDD_36_num_sample_100
     RDKit          3D

  0  0  0  0  0  0  0  0  0  0999 V3000
M  V30 BEGIN CTAB
M  V30 COUNTS 102 107 0 0 1
M  V30 BEGIN ATOM
M  V30 1 C 10.587699 6.579808 -5.582649 0
M  V30 2 O 7.311735 2.308661 -15.074272 0
M  V30 3 C 9.195946 6.877309 -12.164883 0
M  V30 4 C 10.658820 8.290023 -22.784403 0
M  V30 5 C 11.477645 3.677715 -17.914378 0 CFG=1
M  V30 6 O 10.700432 8.169275 -19.896777 0
M  V30 7 C 7.054855 4.862035 -13.117933 0
M  V30 8 C 9.701265 6.293847 -9.300234 0
M  V30 9 C 8.709979 5.470408 -10.131847 0 CFG=1
M  V30 10 C 10.765184 6.969298 -10.099670 0 CFG=1
M  V30 11 C 7.464829 0.081626 -14.363319 0
M  V30 12 C 6.435762 4.783060 -10.613490 0
M  V30 13 C 10.631815 6.715532 -11.634516 0
M  V30 14 C 10.534150 7.056835 -7.021161 0
M  V30 15 S 13.936711 4.623653 -18.720676 0
M  V30 16 C 11.265347 8.173486 -7.346872 0
M  V30 17 C 7.750999 1.491558 -18.464415 0
M  V30 18 C 11.340426 8.876073 -8.630651 0
M  V30 19 C 12.759377 6.936797 -19.654438 0
M  V30 20 C 7.413418 1.001875 -15.577134 0 CFG=2
M  V30 21 O 10.080337 5.372801 -19.147278 0
M  V30 22 C 6.418266 5.904755 -18.368604 0
M  V30 23 C 12.981740 3.475240 -17.814885 0
M  V30 24 C 11.770848 7.613340 -22.022404 0
M  V30 25 C 8.964649 5.518453 -18.283298 0
M  V30 26 C 7.431689 4.992928 -9.461549 0
M  V30 27 O 6.523664 2.215281 -18.314443 0
M  V30 28 C 6.301723 6.598232 -17.004529 0
M  V30 29 C 6.933536 5.672233 -11.782655 0 CFG=2
M  V30 30 C 5.926860 6.808782 -12.047965 0
M  V30 31 S 13.072433 6.878288 -22.771811 0
M  V30 32 O 8.595636 0.799407 -16.291910 0
M  V30 33 C 7.778045 6.087009 -19.071159 0
M  V30 34 C 10.234246 1.401490 -17.937787 0
M  V30 35 C 13.560149 2.504917 -17.091653 0
M  V30 36 N 8.192784 6.277107 -11.249007 0 CFG=2 CHG=1
M  V30 37 C 7.259382 2.305871 -13.651699 0 CFG=1
M  V30 38 C 11.318097 5.117178 -18.489270 0 CFG=2
M  V30 39 C 11.648368 7.629448 -20.462632 0
M  V30 40 O 7.515879 2.579591 -19.365792 0
M  V30 41 C 10.826831 2.559107 -18.772778 0
M  V30 42 O 9.060861 3.595975 -12.691414 0
M  V30 43 C 12.496334 5.431631 -19.441143 0 CFG=2
M  V30 44 C 11.078993 8.363572 -9.828432 0
M  V30 45 C 9.642159 6.322266 -7.951791 0
M  V30 46 C 8.816839 1.673284 -17.391390 0 CFG=1
M  V30 47 C 7.957088 1.002491 -13.274870 0
M  V30 48 C 7.908267 3.588270 -13.109707 0
M  V30 49 H 9.624718 6.169275 -5.281270 0
M  V30 50 H 11.344672 5.802478 -5.471895 0
M  V30 51 H 10.822996 7.392062 -4.894836 0
M  V30 52 H 8.953341 7.933527 -12.286109 0
M  V30 53 H 9.147574 6.428319 -13.151869 0
M  V30 54 H 10.764538 9.369889 -22.705863 0
M  V30 55 H 10.684747 8.018263 -23.839007 0
M  V30 56 H 11.044134 3.665540 -16.913234 0
M  V30 57 H 7.411541 5.499771 -13.925059 0
M  V30 58 H 9.248636 4.601285 -10.502654 0
M  V30 59 H 11.699151 6.569477 -9.728357 0
M  V30 60 H 6.459410 -0.281896 -14.144382 0
M  V30 61 H 8.126926 -0.763172 -14.540368 0
M  V30 62 H 5.425655 5.041288 -10.294156 0
M  V30 63 H 6.397517 3.732263 -10.884571 0
M  V30 64 H 11.316973 7.342936 -12.205888 0
M  V30 65 H 10.933973 5.702892 -11.891679 0
M  V30 66 H 11.819526 8.625214 -6.537044 0
M  V30 67 H 7.646284 0.500411 -18.901662 0
M  V30 68 H 11.648283 9.905848 -8.603985 0
M  V30 69 H 12.816108 7.432307 -18.684493 0
M  V30 70 H 13.735797 7.101264 -20.108019 0
M  V30 71 H 6.547546 0.769476 -16.198523 0
M  V30 72 H 5.631155 6.284412 -19.021748 0
M  V30 73 H 6.214481 4.840997 -18.245680 0
M  V30 74 H 8.697908 4.555257 -17.870268 0
M  V30 75 H 9.204301 6.169172 -17.445337 0
M  V30 76 H 7.035288 5.769303 -8.819842 0
M  V30 77 H 7.556378 4.137878 -8.813431 0
M  V30 78 H 5.310108 6.443498 -16.579470 0
M  V30 79 H 7.024865 6.201570 -16.292368 0
M  V30 80 H 6.457554 7.672814 -17.089584 0
M  V30 81 H 5.034829 6.429532 -12.540684 0
M  V30 82 H 5.597564 7.298341 -11.130507 0
M  V30 83 H 6.350589 7.572002 -12.701226 0
M  V30 84 H 9.686644 8.002526 -22.381821 0
M  V30 85 H 7.956320 7.140378 -19.290119 0
M  V30 86 H 7.728624 5.581887 -20.036866 0
M  V30 87 H 10.212026 0.491507 -18.538430 0
M  V30 88 H 10.902551 1.181178 -17.108283 0
M  V30 89 H 12.969328 1.799258 -16.530137 0
M  V30 90 H 14.634109 2.407169 -17.051340 0
M  V30 91 H 6.213601 2.261670 -13.345701 0
M  V30 92 H 11.413049 5.811271 -17.651144 0
M  V30 93 H 10.049611 2.959170 -19.422074 0
M  V30 94 H 11.572745 2.157195 -19.459806 0
M  V30 95 H 6.053417 4.557674 -13.425185 0
M  V30 96 H 12.315612 4.935694 -20.395470 0
M  V30 97 H 11.180965 8.986049 -10.691283 0
M  V30 98 H 8.866284 5.731019 -7.491560 0
M  V30 99 H 8.779645 2.684398 -17.000354 0
M  V30 100 H 9.042202 1.088134 -13.317866 0
M  V30 101 H 7.678543 0.638162 -12.290239 0
M  V30 102 H 7.824995 7.067604 -10.718005 0
M  V30 END ATOM
M  V30 BEGIN BOND
M  V30 1 1 9 8
M  V30 2 1 10 8
M  V30 3 1 13 3
M  V30 4 1 13 10
M  V30 5 1 14 1
M  V30 6 2 16 14
M  V30 7 1 18 16
M  V30 8 1 20 2
M  V30 9 1 20 11
M  V30 10 1 23 5
M  V30 11 1 23 15
M  V30 12 1 24 4
M  V30 13 1 25 21
M  V30 14 1 26 9
M  V30 15 1 26 12
M  V30 16 1 27 17
M  V30 17 1 28 22
M  V30 18 1 29 7 CFG=3
M  V30 19 1 29 12
M  V30 20 1 30 29
M  V30 21 2 31 24
M  V30 22 1 32 20
M  V30 23 1 33 22
M  V30 24 1 33 25
M  V30 25 2 35 23
M  V30 26 1 36 3
M  V30 27 1 36 9
M  V30 28 1 36 29
M  V30 29 1 37 2
M  V30 30 1 38 5
M  V30 31 1 38 21
M  V30 32 2 39 6
M  V30 33 1 39 19
M  V30 34 1 39 24
M  V30 35 1 40 17
M  V30 36 1 40 27
M  V30 37 1 41 5
M  V30 38 1 41 34
M  V30 39 1 43 15
M  V30 40 1 43 19
M  V30 41 1 43 38
M  V30 42 1 44 10
M  V30 43 2 44 18
M  V30 44 2 45 8
M  V30 45 1 45 14
M  V30 46 1 46 17
M  V30 47 1 46 32
M  V30 48 1 46 34
M  V30 49 1 47 11
M  V30 50 1 47 37
M  V30 51 1 48 7
M  V30 52 1 48 37
M  V30 53 2 48 42
M  V30 54 1 49 1
M  V30 55 1 50 1
M  V30 56 1 51 1
M  V30 57 1 52 3
M  V30 58 1 53 3
M  V30 59 1 54 4
M  V30 60 1 55 4
M  V30 61 1 5 56 CFG=1
M  V30 62 1 57 7
M  V30 63 1 9 58 CFG=3
M  V30 64 1 10 59 CFG=1
M  V30 65 1 60 11
M  V30 66 1 61 11
M  V30 67 1 62 12
M  V30 68 1 63 12
M  V30 69 1 64 13
M  V30 70 1 65 13
M  V30 71 1 66 16
M  V30 72 1 67 17
M  V30 73 1 68 18
M  V30 74 1 69 19
M  V30 75 1 70 19
M  V30 76 1 20 71 CFG=3
M  V30 77 1 72 22
M  V30 78 1 73 22
M  V30 79 1 74 25
M  V30 80 1 75 25
M  V30 81 1 76 26
M  V30 82 1 77 26
M  V30 83 1 78 28
M  V30 84 1 79 28
M  V30 85 1 80 28
M  V30 86 1 81 30
M  V30 87 1 82 30
M  V30 88 1 83 30
M  V30 89 1 84 4
M  V30 90 1 85 33
M  V30 91 1 86 33
M  V30 92 1 87 34
M  V30 93 1 88 34
M  V30 94 1 89 35
M  V30 95 1 90 35
M  V30 96 1 37 91 CFG=3
M  V30 97 1 38 92 CFG=1
M  V30 98 1 93 41
M  V30 99 1 94 41
M  V30 100 1 95 7
M  V30 101 1 43 96 CFG=3
M  V30 102 1 97 44
M  V30 103 1 98 45
M  V30 104 1 46 99 CFG=1
M  V30 105 1 100 47
M  V30 106 1 101 47
M  V30 107 1 36 102 CFG=1
M  V30 END BOND
M  V30 END CTAB
M  END
>  <i_epik_Tot_Q>  (1) 
1

>  <i_epik_Tot_abs_Q>  (1) 
1

>  <i_i_glide_confnum>  (1) 
2964

>  <i_i_glide_lignum>  (1) 
66

>  <i_i_glide_posenum>  (1) 
332

>  <i_i_glide_rotatable_bonds>  (1) 
16

>  <i_lp_mmshare_version>  (1) 
72125

>  <i_m_source_file_index>  (1) 
37

>  <i_f3d_flags>  (1) 
0

>  <num_sample>  (1) 
100

>  <b_lp_Chiralities_Consistent>  (1) 
1

>  <r_epik_Charging_Adjusted_Penalty>  (1) 
0.91210119875661555

>  <r_epik_Ionization_Penalty>  (1) 
0.45605060116919061

>  <r_epik_Ionization_Penalty_Charging>  (1) 
0.45605059937830777

>  <r_epik_Ionization_Penalty_Neutral>  (1) 
1.7908828364046034e-09

>  <r_epik_State_Penalty>  (1) 
0.45605059937830777

>  <r_glide_ring_energy>  (1) 
0.9081224923352812

>  <r_i_docking_score>  (1) 
-6.3882052441869064

>  <r_i_glide_ecoul>  (1) 
-4.4329386837449309

>  <r_i_glide_eff_state_penalty>  (1) 
0.45605059937830777

>  <r_i_glide_einternal>  (1) 
11.939379969256805

>  <r_i_glide_emodel>  (1) 
-54.280790369699346

>  <r_i_glide_emodel_strain>  (1) 
0.66280438555804722

>  <r_i_glide_energy>  (1) 
-47.83559585477164

>  <r_i_glide_erotb>  (1) 
0.43548923687221863

>  <r_i_glide_esite>  (1) 
-0.097392140355502699

>  <r_i_glide_evdw>  (1) 
-43.402657171026711

>  <r_i_glide_gscore>  (1) 
-6.8442558435652145

>  <r_i_glide_gscore_strain>  (1) 
0

>  <r_i_glide_hbond>  (1) 
-0.20000000000000001

>  <r_i_glide_ligand_efficiency>  (1) 
-0.13308760925389387

>  <r_i_glide_ligand_efficiency_ln>  (1) 
-1.3114230412339887

>  <r_i_glide_ligand_efficiency_sa>  (1) 
-0.48367247085209569

>  <r_i_glide_lipo>  (1) 
-2.6799966094169805

>  <r_i_glide_metal>  (1) 
-0

>  <r_i_glide_rewards>  (1) 
-1.4672826695518735

>  <r_lp_Energy>  (1) 
33.757401999999999

>  <r_lp_tautomer_probability>  (1) 
0.99994996000200076

>  <s_epik_Chemistry_Notes>  (1) 
This compound contains an acetal/aminal-like group ( X-CH(R)-Y where X, Y are N, S, or O) that may be acid/base labile, releasing an aldehyde.

>  <s_epik_cmdline>  (1) 
J2VwaWtfcHl0aG9uJywgJy1waHQnLCAnMS4wJywgJy1waCcsICc3LjQnLCAnLXRuJywgJzgnLCAnLW1hJywgJzUwMCcsICctaW1hZScsICc8aW5maWxlLm1hZT4nLCAnLW9tYWUnLCAnPG91dGZpbGUubWFlPic=

>  <s_epik_input>  (1) 
W0NIM11DKFtDSF0xKT1bQ0hdW0NIXT1bQ0hdW0NAQEhdMltDSDJdW0NIMl1OKFtDQEhdM0M9MTIpW0NAXShbQ0gzXSkoW0NIMl1bQ0gyXTMpL1tDSF09QyhbT0hdKS9bQ0BIXShbQ0gyXVtDSDJdNClPW0NASF00T1tDQEhdKFtDSF01T081KVtDSDJdW0NIMl1bQ0BIXTZDKD1bQ0gyXSlTW0NASF0oW0NIMl1DKD1PKUMoPVtDSDJdKVtTSF0pW0NASF02T1tDSDJdW0NIMl1bQ0gyXVtDSDNd

>  <s_glide_docking_method>  (1) 
confgen

>  <s_i_glide_gridfile>  (1) 
gpcr_drd2_6luq_protein_autoprepared_prepared

>  <s_lp_Force_Field>  (1) 
S-OPLS

>  <s_lp_Variant>  (1) 
DiffSBDD_36_num_sample_100-3

>  <s_m_source_file>  (1) 
generated__ligand_DiffSBDD_2026-05-06_prepared.sdf

>  <GenAI_Model>  (1) 
DiffSBDD

>  <Protein>  (1) 
generic_title2

$$$$
DiffSBDD_55_num_sample_100
     RDKit          3D

  0  0  0  0  0  0  0  0  0  0999 V3000
M  V30 BEGIN CTAB
M  V30 COUNTS 51 54 0 0 1
M  V30 BEGIN ATOM
M  V30 1 O 11.693810 8.682944 -6.421153 0
M  V30 2 C 6.126260 7.446021 -15.072621 0
M  V30 3 C 10.322244 7.209008 -10.058076 0
M  V30 4 C 10.201773 5.769316 -12.531116 0
M  V30 5 C 9.038302 6.247286 -7.680732 0 CFG=2
M  V30 6 C 9.834847 7.539108 -7.528332 0 CFG=1
M  V30 7 S 7.034817 4.969210 -15.683788 0
M  V30 8 C 5.689492 6.175378 -15.796756 0
M  V30 9 C 7.106408 7.008908 -13.994326 0
M  V30 10 C 11.762119 7.638771 -4.319319 0
M  V30 11 N 9.131527 6.340103 -10.292129 0 CFG=1 CHG=1
M  V30 12 C 11.102767 7.398099 -6.643999 0 CFG=2
M  V30 13 C 10.120628 8.179418 -8.899712 0 CFG=2
M  V30 14 C 10.865907 6.830761 -5.235970 0
M  V30 15 C 11.782511 8.985861 -5.030521 0
M  V30 16 C 7.246877 4.778004 -12.912210 0
M  V30 17 C 9.282636 5.323509 -11.386445 0 CFG=1
M  V30 18 C 7.668478 5.607347 -14.121748 0 CFG=1
M  V30 19 C 9.582354 4.969305 -8.275922 0
M  V30 20 O 7.434821 7.755217 -13.072186 0
M  V30 21 O 9.034840 8.969302 -9.280432 0
M  V30 22 C 7.932957 4.656401 -11.743113 0
M  V30 23 C 8.579616 5.735376 -9.048890 0 CFG=1
M  V30 24 H 6.634886 8.126646 -15.755119 0
M  V30 25 H 5.274583 7.973981 -14.644323 0
M  V30 26 H 10.538383 7.792449 -10.953387 0
M  V30 27 H 11.203518 6.615591 -9.848068 0
M  V30 28 H 10.234842 4.985977 -13.286352 0
M  V30 29 H 9.886468 6.711285 -12.968189 0
M  V30 30 H 11.236994 5.909621 -12.230677 0
M  V30 31 H 8.343285 6.092111 -6.856879 0
M  V30 32 H 9.184753 8.227033 -6.982646 0
M  V30 33 H 5.431083 6.365753 -16.838873 0
M  V30 34 H 4.807988 5.769289 -15.303853 0
M  V30 35 H 12.735020 7.176676 -4.284996 0
M  V30 36 H 11.434835 7.696058 -3.283689 0
M  V30 37 H 11.844476 6.784057 -7.155422 0
M  V30 38 H 10.981153 8.845870 -8.836034 0
M  V30 39 H 9.834722 6.968925 -4.938762 0
M  V30 40 H 11.081522 5.769280 -5.178970 0
M  V30 41 H 12.678929 9.564242 -4.804479 0
M  V30 42 H 10.914587 9.581043 -4.744551 0
M  V30 43 H 6.310400 4.248327 -13.015732 0
M  V30 44 H 9.834787 4.494266 -10.942745 0
M  V30 45 H 8.723595 5.661606 -14.318197 0
M  V30 46 H 9.199412 4.031065 -7.891671 0
M  V30 47 H 10.634809 4.968849 -8.531251 0
M  V30 48 H 8.196573 8.509744 -9.121693 0
M  V30 49 H 7.509275 4.033909 -10.970552 0
M  V30 50 H 7.557667 5.369205 -9.131187 0
M  V30 51 H 8.402099 6.983641 -10.584210 0
M  V30 END ATOM
M  V30 BEGIN BOND
M  V30 1 1 6 5
M  V30 2 1 8 2
M  V30 3 1 8 7
M  V30 4 1 9 2
M  V30 5 1 11 3
M  V30 6 1 12 1
M  V30 7 1 12 6
M  V30 8 1 13 3
M  V30 9 1 13 6
M  V30 10 1 14 10
M  V30 11 1 14 12
M  V30 12 1 15 1
M  V30 13 1 15 10
M  V30 14 1 17 4
M  V30 15 1 17 11
M  V30 16 1 18 7
M  V30 17 1 18 9
M  V30 18 1 18 16
M  V30 19 1 19 5
M  V30 20 2 20 9
M  V30 21 1 21 13
M  V30 22 2 22 16
M  V30 23 1 22 17
M  V30 24 1 23 5
M  V30 25 1 23 11
M  V30 26 1 23 19
M  V30 27 1 24 2
M  V30 28 1 25 2
M  V30 29 1 26 3
M  V30 30 1 27 3
M  V30 31 1 28 4
M  V30 32 1 29 4
M  V30 33 1 30 4
M  V30 34 1 5 31 CFG=1
M  V30 35 1 6 32 CFG=1
M  V30 36 1 33 8
M  V30 37 1 34 8
M  V30 38 1 35 10
M  V30 39 1 36 10
M  V30 40 1 12 37 CFG=3
M  V30 41 1 13 38 CFG=1
M  V30 42 1 39 14
M  V30 43 1 40 14
M  V30 44 1 41 15
M  V30 45 1 42 15
M  V30 46 1 43 16
M  V30 47 1 17 44 CFG=1
M  V30 48 1 18 45 CFG=3
M  V30 49 1 46 19
M  V30 50 1 47 19
M  V30 51 1 48 21
M  V30 52 1 49 22
M  V30 53 1 23 50 CFG=3
M  V30 54 1 11 51 CFG=3
M  V30 END BOND
M  V30 END CTAB
M  END
>  <i_epik_Tot_Q>  (1) 
1

>  <i_epik_Tot_abs_Q>  (1) 
1

>  <i_i_glide_confnum>  (1) 
71

>  <i_i_glide_lignum>  (1) 
103

>  <i_i_glide_posenum>  (1) 
333

>  <i_i_glide_rotatable_bonds>  (1) 
5

>  <i_lp_mmshare_version>  (1) 
72125

>  <i_m_source_file_index>  (1) 
56

>  <i_f3d_flags>  (1) 
0

>  <num_sample>  (1) 
100

>  <b_lp_Chiralities_Consistent>  (1) 
1

>  <r_epik_Charging_Adjusted_Penalty>  (1) 
0.1887110856522376

>  <r_epik_Ionization_Penalty>  (1) 
0.094355642401006162

>  <r_epik_Ionization_Penalty_Charging>  (1) 
0.094355542826118813

>  <r_epik_Ionization_Penalty_Neutral>  (1) 
9.9574887353862298e-08

>  <r_epik_State_Penalty>  (1) 
0.094355542826118799

>  <r_glide_ring_energy>  (1) 
0.84612545809472961

>  <r_i_docking_score>  (1) 
-6.3785046572075093

>  <r_i_glide_ecoul>  (1) 
-11.849797375013424

>  <r_i_glide_eff_state_penalty>  (1) 
0.094355542826118799

>  <r_i_glide_einternal>  (1) 
2.857608845507313

>  <r_i_glide_emodel>  (1) 
-40.264660222865977

>  <r_i_glide_emodel_strain>  (1) 
0.87721538524588993

>  <r_i_glide_energy>  (1) 
-27.774770811691099

>  <r_i_glide_erotb>  (1) 
0.49519417565235591

>  <r_i_glide_esite>  (1) 
-0.091375018604522532

>  <r_i_glide_evdw>  (1) 
-15.924973436677673

>  <r_i_glide_gscore>  (1) 
-6.4728602000336277

>  <r_i_glide_gscore_strain>  (1) 
0

>  <r_i_glide_hbond>  (1) 
-0.21289480902238922

>  <r_i_glide_ligand_efficiency>  (1) 
-0.27732628944380477

>  <r_i_glide_ligand_efficiency_ln>  (1) 
-1.5423802631953161

>  <r_i_glide_ligand_efficiency_sa>  (1) 
-0.7886790771939941

>  <r_i_glide_lipo>  (1) 
-1.885257866173951

>  <r_i_glide_metal>  (1) 
-0

>  <r_i_glide_rewards>  (1) 
-2.2048084037992233

>  <r_lp_Energy>  (1) 
19.602328

>  <r_lp_tautomer_probability>  (1) 
0.99995000000000001

>  <s_epik_cmdline>  (1) 
J2VwaWtfcHl0aG9uJywgJy1waHQnLCAnMS4wJywgJy1waCcsICc3LjQnLCAnLXRuJywgJzgnLCAnLW1hJywgJzUwMCcsICctaW1hZScsICc8aW5maWxlLm1hZT4nLCAnLW9tYWUnLCAnPG91dGZpbGUubWFlPic=

>  <s_epik_input>  (1) 
W0NIMl0xW0NIMl1bQ0gyXU9bQ0BASF0xW0NASF0yW0NASF0oW09IXSlbQ0gyXU4oW0NASF0oW0NASF0yMylbQ0gyXTMpW0NASF0oW0NIM10pL1tDSF09W0NIXVxbQ0BIXTRTW0NIMl1bQ0gyXUM0PU8=

>  <s_glide_docking_method>  (1) 
confgen

>  <s_i_glide_gridfile>  (1) 
gpcr_drd2_6luq_protein_autoprepared_prepared

>  <s_lp_Force_Field>  (1) 
S-OPLS

>  <s_lp_Variant>  (1) 
DiffSBDD_55_num_sample_100-4

>  <s_m_source_file>  (1) 
generated__ligand_DiffSBDD_2026-05-06_prepared.sdf

>  <GenAI_Model>  (1) 
DiffSBDD

>  <Protein>  (1) 
generic_title2

$$$$
DiffSBDD_40_num_sample_100
     RDKit          3D

  0  0  0  0  0  0  0  0  0  0999 V3000
M  V30 BEGIN CTAB
M  V30 COUNTS 62 66 0 0 1
M  V30 BEGIN ATOM
M  V30 1 F 13.198740 9.369303 -4.497899 0
M  V30 2 C 8.578297 5.675304 -10.956921 0 CFG=2
M  V30 3 O 5.384067 4.517565 -13.568856 0
M  V30 4 C 8.288548 5.615221 -18.212876 0
M  V30 5 C 8.681189 6.927127 -11.840474 0
M  V30 6 C 6.286274 4.551915 -12.742863 0
M  V30 7 C 8.310106 4.306021 -11.606461 0 CFG=1
M  V30 8 C 10.386169 7.382644 -8.068374 0
M  V30 9 C 9.162007 2.629173 -19.353547 0
M  V30 10 F 11.204969 9.769355 -3.804777 0
M  V30 11 O 8.363972 4.774997 -14.041877 0
M  V30 12 C 5.789603 5.818372 -18.095328 0
M  V30 13 F 12.140340 7.853183 -3.386621 0
M  V30 14 O 9.113512 0.849305 -17.683150 0
M  V30 15 C 11.589142 9.070831 -6.781954 0
M  V30 16 N 9.815974 6.983842 -9.334189 0
M  V30 17 N 9.159752 4.565659 -17.682911 0
M  V30 18 C 12.002252 8.822757 -4.292104 0
M  V30 19 C 10.761604 7.068887 -5.664207 0
M  V30 20 C 7.258108 4.969303 -10.691668 0 CFG=2
M  V30 21 C 9.312748 5.758186 -9.626072 0
M  V30 22 C 7.638470 2.489440 -13.315084 0
M  V30 23 C 7.681976 4.007921 -13.027447 0 CFG=2
M  V30 24 O 9.434840 4.781505 -8.889793 0
M  V30 25 C 8.703322 3.226383 -18.042371 0 CFG=2
M  V30 26 C 6.967995 5.735177 -17.457650 0
M  V30 27 C 7.070642 5.762350 -15.935723 0
M  V30 28 C 9.690196 2.087109 -18.039625 0 CFG=2
M  V30 29 C 10.235064 6.602067 -6.885622 0
M  V30 30 C 8.007534 4.644984 -15.428167 0 CFG=1
M  V30 31 C 11.066119 8.609716 -8.004917 0
M  V30 32 C 9.323285 4.714789 -16.235317 0
M  V30 33 N 6.166263 5.041630 -11.545337 0
M  V30 34 C 11.434840 8.307401 -5.610893 0
M  V30 35 H 8.807610 6.569334 -18.147747 0
M  V30 36 H 8.103159 5.448819 -19.274826 0
M  V30 37 H 8.041836 6.847482 -12.717034 0
M  V30 38 H 8.354888 7.821433 -11.308875 0
M  V30 39 H 9.705646 7.066441 -12.186510 0
M  V30 40 H 8.903872 3.487099 -11.202850 0
M  V30 41 H 9.848477 3.213441 -19.963555 0
M  V30 42 H 8.447659 2.025182 -19.910216 0
M  V30 43 H 4.863504 5.905589 -17.545784 0
M  V30 44 H 5.737491 5.799910 -19.174076 0
M  V30 45 H 8.211602 0.839825 -17.965256 0
M  V30 46 H 12.104770 10.017948 -6.740040 0
M  V30 47 H 9.740865 7.698586 -10.041422 0
M  V30 48 H 10.638756 6.479988 -4.766994 0
M  V30 49 H 7.070953 4.496320 -9.727724 0
M  V30 50 H 7.216446 1.942458 -12.472995 0
M  V30 51 H 7.016572 2.234392 -14.172006 0
M  V30 52 H 8.634850 2.090044 -13.491499 0
M  V30 53 H 7.678312 3.030027 -17.733391 0
M  V30 54 H 7.434846 6.732805 -15.606916 0
M  V30 55 H 6.069978 5.674466 -15.525852 0
M  V30 56 H 10.730272 2.238264 -17.754768 0
M  V30 57 H 9.703753 5.671868 -6.896836 0
M  V30 58 H 7.537274 3.685997 -15.622143 0
M  V30 59 H 11.178331 9.209839 -8.896292 0
M  V30 60 H 10.017665 3.954110 -15.891665 0
M  V30 61 H 9.813335 5.667308 -16.028955 0
M  V30 62 H 5.298524 5.442083 -11.221706 0
M  V30 END ATOM
M  V30 BEGIN BOND
M  V30 1 1 2 5 CFG=3
M  V30 2 2 6 3
M  V30 3 1 7 2
M  V30 4 1 16 8
M  V30 5 1 17 4
M  V30 6 1 18 1
M  V30 7 1 18 10
M  V30 8 1 18 13
M  V30 9 1 20 2
M  V30 10 1 20 7
M  V30 11 1 21 2
M  V30 12 1 21 16
M  V30 13 1 23 6
M  V30 14 1 23 7
M  V30 15 1 23 11 CFG=3
M  V30 16 1 23 22
M  V30 17 2 24 21
M  V30 18 1 25 9
M  V30 19 1 25 17
M  V30 20 1 26 4
M  V30 21 2 26 12
M  V30 22 1 27 26
M  V30 23 1 28 9
M  V30 24 1 28 14
M  V30 25 1 28 25
M  V30 26 1 29 8
M  V30 27 2 29 19
M  V30 28 1 30 11
M  V30 29 1 30 27
M  V30 30 2 31 8
M  V30 31 1 31 15
M  V30 32 1 32 17
M  V30 33 1 32 30
M  V30 34 1 33 6
M  V30 35 1 33 20
M  V30 36 2 34 15
M  V30 37 1 34 18
M  V30 38 1 34 19
M  V30 39 1 35 4
M  V30 40 1 36 4
M  V30 41 1 37 5
M  V30 42 1 38 5
M  V30 43 1 39 5
M  V30 44 1 7 40 CFG=1
M  V30 45 1 41 9
M  V30 46 1 42 9
M  V30 47 1 43 12
M  V30 48 1 44 12
M  V30 49 1 45 14
M  V30 50 1 46 15
M  V30 51 1 47 16
M  V30 52 1 48 19
M  V30 53 1 20 49 CFG=1
M  V30 54 1 50 22
M  V30 55 1 51 22
M  V30 56 1 52 22
M  V30 57 1 25 53 CFG=1
M  V30 58 1 54 27
M  V30 59 1 55 27
M  V30 60 1 28 56 CFG=3
M  V30 61 1 57 29
M  V30 62 1 30 58 CFG=1
M  V30 63 1 59 31
M  V30 64 1 60 32
M  V30 65 1 61 32
M  V30 66 1 62 33
M  V30 END BOND
M  V30 END CTAB
M  END
>  <i_epik_Tot_Q>  (1) 
0

>  <i_epik_Tot_abs_Q>  (1) 
0

>  <i_i_glide_confnum>  (1) 
91

>  <i_i_glide_lignum>  (1) 
72

>  <i_i_glide_posenum>  (1) 
246

>  <i_i_glide_rotatable_bonds>  (1) 
8

>  <i_lp_mmshare_version>  (1) 
72125

>  <i_m_source_file_index>  (1) 
41

>  <i_f3d_flags>  (1) 
0

>  <num_sample>  (1) 
100

>  <b_lp_Chiralities_Consistent>  (1) 
1

>  <r_epik_Charging_Adjusted_Penalty>  (1) 
0.63391490954422869

>  <r_epik_Ionization_Penalty>  (1) 
0.63391730383191769

>  <r_epik_Ionization_Penalty_Charging>  (1) 
0

>  <r_epik_Ionization_Penalty_Neutral>  (1) 
0.63391730383191769

>  <r_epik_State_Penalty>  (1) 
0.63391490954422869

>  <r_glide_ring_energy>  (1) 
0

>  <r_i_docking_score>  (1) 
-6.377978437240083

>  <r_i_glide_ecoul>  (1) 
-1.8241125396064226

>  <r_i_glide_eff_state_penalty>  (1) 
0.63391490954422869

>  <r_i_glide_einternal>  (1) 
5.6945080674521904

>  <r_i_glide_emodel>  (1) 
-62.04355520942476

>  <r_i_glide_emodel_strain>  (1) 
0.33623301973277364

>  <r_i_glide_energy>  (1) 
-46.629887070859304

>  <r_i_glide_erotb>  (1) 
0.52901650880821682

>  <r_i_glide_esite>  (1) 
-0.20050596043100583

>  <r_i_glide_evdw>  (1) 
-44.805774531252879

>  <r_i_glide_gscore>  (1) 
-7.0118933467843121

>  <r_i_glide_gscore_strain>  (1) 
0

>  <r_i_glide_hbond>  (1) 
0

>  <r_i_glide_ligand_efficiency>  (1) 
-0.18758760109529657

>  <r_i_glide_ligand_efficiency_ln>  (1) 
-1.4090743330218796

>  <r_i_glide_ligand_efficiency_sa>  (1) 
-0.60771100628165575

>  <r_i_glide_lipo>  (1) 
-2.7361332323692897

>  <r_i_glide_metal>  (1) 
-0

>  <r_i_glide_rewards>  (1) 
-2.0903650552886242

>  <r_lp_Energy>  (1) 
30.893163999999999

>  <s_epik_cmdline>  (1) 
J2VwaWtfcHl0aG9uJywgJy1waHQnLCAnMS4wJywgJy1waCcsICc3LjQnLCAnLXRuJywgJzgnLCAnLW1hJywgJzUwMCcsICctaW1hZScsICc8aW5maWxlLm1hZT4nLCAnLW9tYWUnLCAnPG91dGZpbGUubWFlPic=

>  <s_epik_input>  (1) 
RkMoRikoRiljKFtjSF1bY0hdMSlbY0hdW2NIXWMxW05IXUMoPU8pW0NAXTIoW0NIM10pW0NASF0oW0NASF0yMylbTkhdQyg9TylbQ0BAXTMoW0NIM10pT1tDQEhdKFtDSDJdNClbQ0gyXUMoPVtDSDJdKVtDSDJdTjRbQ0BIXTVbQ0gyXVtDQEBIXTVbT0hd

>  <s_glide_docking_method>  (1) 
confgen

>  <s_i_glide_gridfile>  (1) 
gpcr_drd2_6luq_protein_autoprepared_prepared

>  <s_lp_Force_Field>  (1) 
S-OPLS

>  <s_lp_Variant>  (1) 
DiffSBDD_40_num_sample_100-3

>  <s_m_source_file>  (1) 
generated__ligand_DiffSBDD_2026-05-06_prepared.sdf

>  <GenAI_Model>  (1) 
DiffSBDD

>  <Protein>  (1) 
generic_title2

$$$$
DiffSBDD_86_num_sample_100
     RDKit          3D

  0  0  0  0  0  0  0  0  0  0999 V3000
M  V30 BEGIN CTAB
M  V30 COUNTS 53 55 0 0 1
M  V30 BEGIN ATOM
M  V30 1 C 6.875882 5.921272 -15.819057 0
M  V30 2 O 9.834836 5.990477 -10.551781 0
M  V30 3 O 11.535707 8.421854 -7.873219 0
M  V30 4 C 11.124858 6.569276 -4.290552 0
M  V30 5 C 9.923819 7.567173 -6.290493 0 CFG=2
M  V30 6 C 9.224755 6.135601 -12.908306 0 CFG=2
M  V30 7 C 9.745340 7.378626 -10.260186 0
M  V30 8 C 12.634903 7.884715 -2.912758 0
M  V30 9 F 13.066778 10.152683 -3.492384 0
M  V30 10 C 12.433292 8.994702 -3.751564 0
M  V30 11 C 8.147272 3.923021 -13.906156 0
M  V30 12 O 8.306305 3.410318 -12.635723 0
M  V30 13 C 8.574276 5.382552 -14.091392 0 CFG=1
M  V30 14 F 10.547000 6.169367 -13.091167 0
M  V30 15 O 8.952720 8.569315 -6.291780 0
M  V30 16 C 11.034870 5.970462 -7.715363 0
M  V30 17 C 11.980215 6.673164 -3.181198 0
M  V30 18 C 7.458967 3.677735 -16.259995 0
M  V30 19 C 7.649303 3.159389 -14.886474 0
M  V30 20 C 10.905795 7.681778 -5.126611 0
M  V30 21 F 11.363200 9.981515 -5.648405 0
M  V30 22 C 10.532208 7.409120 -7.700427 0 CFG=2
M  V30 23 S 5.593009 6.795446 -16.409223 0
M  V30 24 C 8.957448 5.492179 -11.559517 0 CFG=1
M  V30 25 C 9.236187 4.007699 -11.747619 0
M  V30 26 C 11.566798 8.901034 -4.856114 0
M  V30 27 N 7.423100 6.131007 -14.584043 0
M  V30 28 C 12.751995 8.079951 -8.521770 0
M  V30 29 N 7.470666 4.926242 -16.574935 0
M  V30 30 C 9.435248 7.594881 -8.776602 0
M  V30 31 H 10.619797 5.641835 -4.489103 0
M  V30 32 H 9.312014 6.685928 -6.084340 0
M  V30 33 H 8.915743 7.179434 -12.904899 0
M  V30 34 H 10.656236 7.889449 -10.562807 0
M  V30 35 H 8.937445 7.845971 -10.821271 0
M  V30 36 H 13.293820 7.964943 -2.062277 0
M  V30 37 H 9.322836 5.386613 -14.887875 0
M  V30 38 H 8.264586 8.311690 -6.892639 0
M  V30 39 H 10.227436 5.257908 -7.552092 0
M  V30 40 H 11.821333 5.779143 -6.986509 0
M  V30 41 H 11.414006 5.770279 -8.691388 0
M  V30 42 H 12.135177 5.819996 -2.537132 0
M  V30 43 H 7.289531 2.905732 -17.016376 0
M  V30 44 H 7.384945 2.125040 -14.723392 0
M  V30 45 H 7.920955 5.644400 -11.250133 0
M  V30 46 H 10.235215 3.840451 -12.142982 0
M  V30 47 H 9.190914 3.495654 -10.788971 0
M  V30 48 H 7.022306 6.844730 -13.993540 0
M  V30 49 H 13.356624 8.969503 -8.685385 0
M  V30 50 H 12.596023 7.611948 -9.493234 0
M  V30 51 H 13.333963 7.409417 -7.891880 0
M  V30 52 H 8.634790 6.909075 -8.510636 0
M  V30 53 H 9.036001 8.607272 -8.712911 0
M  V30 END ATOM
M  V30 BEGIN BOND
M  V30 1 1 7 2
M  V30 2 1 10 8
M  V30 3 1 10 9
M  V30 4 1 12 11
M  V30 5 1 13 6
M  V30 6 1 13 11
M  V30 7 1 14 6
M  V30 8 1 15 5
M  V30 9 1 17 4
M  V30 10 2 17 8
M  V30 11 2 19 11
M  V30 12 1 19 18
M  V30 13 2 20 4
M  V30 14 1 20 5
M  V30 15 1 22 3 CFG=3
M  V30 16 1 22 5
M  V30 17 1 22 16
M  V30 18 2 23 1
M  V30 19 1 24 2
M  V30 20 1 24 6
M  V30 21 1 25 12
M  V30 22 1 25 24
M  V30 23 2 26 10
M  V30 24 1 26 20
M  V30 25 1 26 21
M  V30 26 1 27 1
M  V30 27 1 27 13
M  V30 28 1 28 3
M  V30 29 1 29 1
M  V30 30 2 29 18
M  V30 31 1 30 7
M  V30 32 1 30 22
M  V30 33 1 31 4
M  V30 34 1 5 32 CFG=1
M  V30 35 1 6 33 CFG=1
M  V30 36 1 34 7
M  V30 37 1 35 7
M  V30 38 1 36 8
M  V30 39 1 13 37 CFG=3
M  V30 40 1 38 15
M  V30 41 1 39 16
M  V30 42 1 40 16
M  V30 43 1 41 16
M  V30 44 1 42 17
M  V30 45 1 43 18
M  V30 46 1 44 19
M  V30 47 1 24 45 CFG=1
M  V30 48 1 46 25
M  V30 49 1 47 25
M  V30 50 1 48 27
M  V30 51 1 49 28
M  V30 52 1 50 28
M  V30 53 1 51 28
M  V30 54 1 52 30
M  V30 55 1 53 30
M  V30 END BOND
M  V30 END CTAB
M  END
>  <i_epik_Tot_Q>  (1) 
0

>  <i_epik_Tot_abs_Q>  (1) 
0

>  <i_i_glide_confnum>  (1) 
28

>  <i_i_glide_lignum>  (1) 
176

>  <i_i_glide_posenum>  (1) 
108

>  <i_i_glide_rotatable_bonds>  (1) 
8

>  <i_lp_mmshare_version>  (1) 
72125

>  <i_m_source_file_index>  (1) 
87

>  <i_f3d_flags>  (1) 
0

>  <num_sample>  (1) 
100

>  <b_lp_Chiralities_Consistent>  (1) 
1

>  <r_epik_Charging_Adjusted_Penalty>  (1) 
0

>  <r_epik_Ionization_Penalty>  (1) 
0.00043041881029206555

>  <r_epik_Ionization_Penalty_Charging>  (1) 
0

>  <r_epik_Ionization_Penalty_Neutral>  (1) 
0.00043041881029206555

>  <r_epik_State_Penalty>  (1) 
-0

>  <r_glide_ring_energy>  (1) 
0

>  <r_i_docking_score>  (1) 
-6.3765106953906923

>  <r_i_glide_ecoul>  (1) 
-4.8852577459265385

>  <r_i_glide_eff_state_penalty>  (1) 
-0

>  <r_i_glide_einternal>  (1) 
8.3933264473469471

>  <r_i_glide_emodel>  (1) 
-40.390361129685012

>  <r_i_glide_emodel_strain>  (1) 
0.13871712277977366

>  <r_i_glide_energy>  (1) 
-30.767982359066377

>  <r_i_glide_erotb>  (1) 
0.40494693264899051

>  <r_i_glide_esite>  (1) 
-0.0061625073147806662

>  <r_i_glide_evdw>  (1) 
-25.882724613139839

>  <r_i_glide_gscore>  (1) 
-6.3765106953906923

>  <r_i_glide_gscore_strain>  (1) 
0

>  <r_i_glide_hbond>  (1) 
-0.049598905592168001

>  <r_i_glide_ligand_efficiency>  (1) 
-0.21255035651302306

>  <r_i_glide_ligand_efficiency_ln>  (1) 
-1.4488127076415145

>  <r_i_glide_ligand_efficiency_sa>  (1) 
-0.66044337690934685

>  <r_i_glide_lipo>  (1) 
-2.6696257717266438

>  <r_i_glide_metal>  (1) 
-0

>  <r_i_glide_rewards>  (1) 
-2.0291455508601173

>  <r_lp_Energy>  (1) 
48.950238999999996

>  <r_lp_tautomer_probability>  (1) 
1

>  <s_epik_Chemistry_Notes>  (1) 
This compound has an imine and may undergo hydrolysis.

>  <s_epik_cmdline>  (1) 
J2VwaWtfcHl0aG9uJywgJy1waHQnLCAnMS4wJywgJy1waCcsICc3LjQnLCAnLXRuJywgJzgnLCAnLW1hJywgJzUwMCcsICctaW1hZScsICc8aW5maWxlLm1hZT4nLCAnLW9tYWUnLCAnPG91dGZpbGUubWFlPic=

>  <s_epik_input>  (1) 
W0NIXTFbQ0hdPU5DKD1TKVtOSF1bQ0BIXShDPTEyKVtDQEhdKEYpW0NAQEhdKFtDSDJdTzIpT1tDSDJdW0NIMl1bQ0BAXShbQ0gzXSkoT1tDSDNdKVtDQEhdKFtPSF0pYyhjM0YpW2NIXVtjSF1bY0hdYzNG

>  <s_glide_docking_method>  (1) 
confgen

>  <s_i_glide_gridfile>  (1) 
gpcr_drd2_6luq_protein_autoprepared_prepared

>  <s_lp_Force_Field>  (1) 
S-OPLS

>  <s_lp_Variant>  (1) 
DiffSBDD_86_num_sample_100-1

>  <s_m_source_file>  (1) 
generated__ligand_DiffSBDD_2026-05-06_prepared.sdf

>  <GenAI_Model>  (1) 
DiffSBDD

>  <Protein>  (1) 
generic_title2

$$$$
DiffSBDD_90_num_sample_100
     RDKit          3D

  0  0  0  0  0  0  0  0  0  0999 V3000
M  V30 BEGIN CTAB
M  V30 COUNTS 61 65 0 0 1
M  V30 BEGIN ATOM
M  V30 1 C 5.447894 5.376862 -21.980194 0
M  V30 2 C 6.631366 4.677190 -19.039585 0
M  V30 3 C 11.681332 8.461672 -8.206741 0
M  V30 4 S 4.642217 6.373019 -23.161476 0
M  V30 5 C 6.739670 5.801002 -16.847599 0
M  V30 6 C 5.661500 6.882241 -18.735098 0
M  V30 7 C 6.040425 6.917565 -17.385929 0
M  V30 8 C 10.767559 8.324283 -9.441880 0
M  V30 9 C 10.572554 7.237593 -6.248492 0
M  V30 10 C 11.655500 9.500204 -5.871810 0
M  V30 11 N 10.063244 7.019778 -9.585452 0 CFG=1 CHG=1
M  V30 12 C 9.236386 6.669664 -8.398412 0
M  V30 13 C 8.119934 5.685744 -12.673978 0
M  V30 14 C 8.115843 3.575584 -15.793631 0
M  V30 15 C 5.952068 5.799900 -19.519053 0
M  V30 16 C 9.339101 6.987176 -10.890545 0
M  V30 17 C 4.390034 7.637408 -21.970426 0
M  V30 18 C 4.887816 8.045604 -19.484739 0
M  V30 19 C 7.147087 5.803107 -15.498538 0
M  V30 20 C 10.104484 6.158937 -7.241834 0
M  V30 21 N 4.904203 7.243995 -20.791045 0 CHG=1
M  V30 22 C 3.717699 8.955141 -22.178481 0
M  V30 23 C 10.913408 8.602655 -6.876088 0 CFG=1
M  V30 24 C 7.716031 3.570718 -17.144064 0
M  V30 25 C 7.034837 4.674667 -17.679752 0
M  V30 26 C 8.314217 4.679672 -13.551964 0
M  V30 27 C 8.618318 5.665763 -11.239358 0
M  V30 28 C 7.847452 4.690453 -14.963051 0
M  V30 29 C 5.486684 6.019028 -20.776799 0
M  V30 30 H 5.834116 4.403135 -22.245419 0
M  V30 31 H 6.844708 3.837635 -19.685310 0
M  V30 32 H 12.262020 9.369251 -8.363580 0
M  V30 33 H 12.414017 7.656119 -8.157221 0
M  V30 34 H 5.810964 7.776092 -16.770859 0
M  V30 35 H 11.390074 8.474876 -10.324428 0
M  V30 36 H 10.034276 9.132122 -9.450895 0
M  V30 37 H 9.799086 7.388684 -5.494847 0
M  V30 38 H 11.434832 6.848586 -5.705336 0
M  V30 39 H 12.634848 9.097276 -5.616979 0
M  V30 40 H 11.804806 10.502821 -6.274098 0
M  V30 41 H 11.088242 9.604925 -4.946195 0
M  V30 42 H 8.634839 7.514214 -8.072039 0
M  V30 43 H 8.535584 5.873429 -8.638629 0
M  V30 44 H 7.585989 6.570857 -12.975540 0
M  V30 45 H 8.634834 2.721953 -15.392385 0
M  V30 46 H 10.070377 7.180610 -11.677099 0
M  V30 47 H 8.634836 7.817583 -10.933383 0
M  V30 48 H 3.865162 8.182754 -19.132026 0
M  V30 49 H 5.448045 8.974566 -19.587478 0
M  V30 50 H 6.929320 6.658655 -14.881913 0
M  V30 51 H 9.518450 5.427219 -6.691667 0
M  V30 52 H 10.960974 5.605471 -7.629101 0
M  V30 53 H 3.022659 9.136655 -21.358685 0
M  V30 54 H 4.480096 9.734122 -22.206718 0
M  V30 55 H 9.971788 9.111748 -7.083542 0
M  V30 56 H 7.934038 2.715291 -17.766751 0
M  V30 57 H 8.848656 3.797518 -13.228471 0
M  V30 58 H 7.742290 5.524304 -10.606536 0
M  V30 59 H 9.277052 4.809710 -11.085588 0
M  V30 60 H 3.177200 8.926851 -23.125043 0
M  V30 61 H 10.768595 6.301339 -9.644085 0
M  V30 END ATOM
M  V30 BEGIN BOND
M  V30 1 1 4 1
M  V30 2 2 7 5
M  V30 3 1 7 6
M  V30 4 1 8 3
M  V30 5 1 11 8
M  V30 6 1 12 11
M  V30 7 1 15 2
M  V30 8 2 15 6
M  V30 9 1 16 11
M  V30 10 1 17 4
M  V30 11 1 18 6
M  V30 12 1 19 5
M  V30 13 1 20 9
M  V30 14 1 20 12
M  V30 15 2 21 17
M  V30 16 1 21 18
M  V30 17 1 22 17
M  V30 18 1 23 3
M  V30 19 1 23 9
M  V30 20 1 23 10
M  V30 21 2 24 14
M  V30 22 2 25 2
M  V30 23 1 25 5
M  V30 24 1 25 24
M  V30 25 2 26 13
M  V30 26 1 27 13
M  V30 27 1 27 16
M  V30 28 1 28 14
M  V30 29 2 28 19
M  V30 30 1 28 26
M  V30 31 2 29 1
M  V30 32 1 29 15
M  V30 33 1 29 21
M  V30 34 1 30 1
M  V30 35 1 31 2
M  V30 36 1 32 3
M  V30 37 1 33 3
M  V30 38 1 34 7
M  V30 39 1 35 8
M  V30 40 1 36 8
M  V30 41 1 37 9
M  V30 42 1 38 9
M  V30 43 1 39 10
M  V30 44 1 40 10
M  V30 45 1 41 10
M  V30 46 1 42 12
M  V30 47 1 43 12
M  V30 48 1 44 13
M  V30 49 1 45 14
M  V30 50 1 46 16
M  V30 51 1 47 16
M  V30 52 1 48 18
M  V30 53 1 49 18
M  V30 54 1 50 19
M  V30 55 1 51 20
M  V30 56 1 52 20
M  V30 57 1 53 22
M  V30 58 1 54 22
M  V30 59 1 23 55 CFG=3
M  V30 60 1 56 24
M  V30 61 1 57 26
M  V30 62 1 58 27
M  V30 63 1 59 27
M  V30 64 1 60 22
M  V30 65 1 11 61 CFG=3
M  V30 END BOND
M  V30 END CTAB
M  END
>  <i_epik_Tot_Q>  (1) 
2

>  <i_epik_Tot_abs_Q>  (1) 
2

>  <i_i_glide_confnum>  (1) 
56

>  <i_i_glide_lignum>  (1) 
182

>  <i_i_glide_posenum>  (1) 
176

>  <i_i_glide_rotatable_bonds>  (1) 
4

>  <i_lp_mmshare_version>  (1) 
72125

>  <i_m_source_file_index>  (1) 
91

>  <i_f3d_flags>  (1) 
0

>  <num_sample>  (1) 
100

>  <b_lp_Chiralities_Consistent>  (1) 
1

>  <r_epik_Charging_Adjusted_Penalty>  (1) 
0.0021252633397680827

>  <r_epik_Ionization_Penalty>  (1) 
0.002125263340211697

>  <r_epik_Ionization_Penalty_Charging>  (1) 
0.0021252633397680827

>  <r_epik_Ionization_Penalty_Neutral>  (1) 
4.4361447992621368e-13

>  <r_epik_State_Penalty>  (1) 
-0

>  <r_glide_ring_energy>  (1) 
0

>  <r_i_docking_score>  (1) 
-6.3709749130829856

>  <r_i_glide_ecoul>  (1) 
-1.705617853977782

>  <r_i_glide_eff_state_penalty>  (1) 
-0

>  <r_i_glide_einternal>  (1) 
2.8681616408831863

>  <r_i_glide_emodel>  (1) 
-48.641179308037188

>  <r_i_glide_emodel_strain>  (1) 
0.11108857369313796

>  <r_i_glide_energy>  (1) 
-34.73193372743507

>  <r_i_glide_erotb>  (1) 
0.47996519481946287

>  <r_i_glide_esite>  (1) 
-0.074399952784746801

>  <r_i_glide_evdw>  (1) 
-33.026315873457285

>  <r_i_glide_gscore>  (1) 
-6.3709749130829856

>  <r_i_glide_gscore_strain>  (1) 
0

>  <r_i_glide_hbond>  (1) 
0

>  <r_i_glide_ligand_efficiency>  (1) 
-0.21968879010630984

>  <r_i_glide_ligand_efficiency_ln>  (1) 
-1.4587917011114671

>  <r_i_glide_ligand_efficiency_sa>  (1) 
-0.67495356625818237

>  <r_i_glide_lipo>  (1) 
-3.1771020369444267

>  <r_i_glide_metal>  (1) 
-0

>  <r_i_glide_rewards>  (1) 
-1.6922796464037426

>  <r_lp_Energy>  (1) 
47.281444999999998

>  <r_lp_tautomer_probability>  (1) 
1

>  <s_epik_cmdline>  (1) 
J2VwaWtfcHl0aG9uJywgJy1waHQnLCAnMS4wJywgJy1waCcsICc3LjQnLCAnLXRuJywgJzgnLCAnLW1hJywgJzUwMCcsICctaW1hZScsICc8aW5maWxlLm1hZT4nLCAnLW9tYWUnLCAnPG91dGZpbGUubWFlPic=

>  <s_epik_input>  (1) 
W0NIMl09QzFTW0NIXT1DMk4xW0NIMl1jKFtjSF0zKWMyW2NIXWMoYzM0KVtjSF1bY0hdYyhbY0hdNClcW0NIXT1bQ0hdXFtDSDJdW0NIMl1ONVtDSDJdW0NIMl1bQ0BIXShbQ0gzXSlbQ0gyXVtDSDJdW0NIMl01

>  <s_glide_docking_method>  (1) 
confgen

>  <s_i_glide_gridfile>  (1) 
gpcr_drd2_6luq_protein_autoprepared_prepared

>  <s_lp_Force_Field>  (1) 
S-OPLS

>  <s_lp_Variant>  (1) 
DiffSBDD_90_num_sample_100-2

>  <s_m_source_file>  (1) 
generated__ligand_DiffSBDD_2026-05-06_prepared.sdf

>  <GenAI_Model>  (1) 
DiffSBDD

>  <Protein>  (1) 
generic_title2

$$$$
DiffSBDD_36_num_sample_100
     RDKit          3D

  0  0  0  0  0  0  0  0  0  0999 V3000
M  V30 BEGIN CTAB
M  V30 COUNTS 102 107 0 0 1
M  V30 BEGIN ATOM
M  V30 1 C 10.993842 6.229474 -4.517413 0
M  V30 2 O 7.423072 3.971350 -15.767296 0
M  V30 3 C 10.422692 7.611751 -11.163746 0
M  V30 4 C 14.911423 10.266500 -19.239635 0
M  V30 5 C 10.676201 6.250834 -20.973509 0 CFG=1
M  V30 6 O 15.401676 6.783349 -20.590098 0
M  V30 7 C 8.870671 5.339823 -12.505298 0
M  V30 8 C 10.445688 6.712363 -8.276949 0
M  V30 9 C 9.658804 5.987553 -9.396799 0 CFG=1
M  V30 10 C 11.484725 7.684360 -8.749834 0 CFG=1
M  V30 11 C 9.546195 3.865207 -16.781491 0
M  V30 12 C 7.498842 5.369934 -10.340196 0
M  V30 13 C 11.664161 7.771083 -10.276849 0
M  V30 14 C 10.926885 7.033340 -5.799494 0
M  V30 15 S 11.297725 8.569073 -22.293211 0
M  V30 16 C 11.434507 8.303592 -5.776007 0
M  V30 17 C 6.393127 6.126173 -18.613923 0
M  V30 18 C 11.450025 9.284499 -6.851439 0
M  V30 19 C 13.869476 8.481385 -21.361063 0
M  V30 20 C 8.046129 3.533349 -16.936414 0 CFG=2
M  V30 21 O 12.606015 6.283536 -19.386568 0
M  V30 22 C 13.512016 3.347759 -17.187575 0
M  V30 23 C 10.273240 7.175154 -22.099322 0
M  V30 24 C 15.513589 8.882668 -19.326892 0
M  V30 25 C 12.788347 4.904392 -19.118580 0
M  V30 26 C 8.304914 5.390974 -9.019700 0
M  V30 27 O 6.316089 7.226937 -19.527285 0
M  V30 28 C 14.516169 2.515592 -17.996061 0
M  V30 29 C 8.274271 6.247461 -11.371410 0 CFG=2
M  V30 30 C 7.422171 7.374767 -12.024958 0
M  V30 31 S 16.719352 8.351117 -18.303686 0
M  V30 32 O 7.473213 4.070413 -18.095577 0
M  V30 33 C 13.353506 4.791268 -17.695008 0
M  V30 34 C 8.610473 5.385588 -19.717713 0
M  V30 35 C 9.226573 6.955525 -22.910293 0
M  V30 36 N 9.312773 6.887768 -10.510325 0 CFG=2 CHG=1
M  V30 37 C 8.400999 4.016514 -14.735124 0 CFG=1
M  V30 38 C 12.171956 6.593094 -20.705332 0 CFG=2
M  V30 39 C 14.969928 7.928636 -20.442071 0
M  V30 40 O 5.661714 5.917879 -19.827951 0
M  V30 41 C 9.734002 6.437584 -19.753950 0
M  V30 42 O 6.635428 4.815362 -13.296235 0
M  V30 43 C 12.426395 8.096844 -20.963726 0 CFG=2
M  V30 44 C 11.434715 9.016479 -8.158106 0
M  V30 45 C 10.250270 6.418917 -6.972429 0
M  V30 46 C 7.732210 5.428333 -18.444232 0 CFG=1
M  V30 47 C 9.567018 4.664517 -15.487203 0
M  V30 48 C 7.847765 4.736184 -13.496394 0
M  V30 49 H 11.736123 5.438255 -4.620338 0
M  V30 50 H 11.285949 6.830957 -3.655534 0
M  V30 51 H 10.025090 5.790543 -4.299158 0
M  V30 52 H 10.027529 8.573061 -11.470189 0
M  V30 53 H 10.756176 7.124508 -12.075602 0
M  V30 54 H 13.834415 10.236215 -19.359321 0
M  V30 55 H 15.109301 10.716916 -18.266156 0
M  V30 56 H 10.622872 5.219750 -21.325070 0
M  V30 57 H 9.450446 4.529233 -12.063157 0
M  V30 58 H 10.234421 5.162288 -9.791166 0
M  V30 59 H 12.448977 7.369282 -8.359962 0
M  V30 60 H 10.095249 2.927841 -16.692354 0
M  V30 61 H 9.975669 4.403445 -17.620399 0
M  V30 62 H 6.495126 5.759855 -10.166016 0
M  V30 63 H 7.374947 4.344643 -10.688649 0
M  V30 64 H 12.226512 8.658901 -10.568538 0
M  V30 65 H 12.321046 6.969170 -10.539552 0
M  V30 66 H 11.836289 8.637660 -4.830953 0
M  V30 67 H 5.778034 6.223751 -17.721915 0
M  V30 68 H 11.491942 10.324771 -6.564407 0
M  V30 69 H 14.070252 8.075954 -22.352465 0
M  V30 70 H 13.949018 9.561405 -21.477686 0
M  V30 71 H 7.900939 2.452789 -16.988317 0
M  V30 72 H 13.844722 3.380540 -16.149158 0
M  V30 73 H 12.542742 2.848351 -17.175316 0
M  V30 74 H 11.843847 4.365976 -19.205671 0
M  V30 75 H 13.486360 4.477625 -19.839644 0
M  V30 76 H 7.835027 6.048899 -8.291757 0
M  V30 77 H 8.383407 4.410890 -8.552412 0
M  V30 78 H 14.639221 1.526084 -17.556168 0
M  V30 79 H 14.186020 2.375664 -19.025670 0
M  V30 80 H 15.493461 2.996758 -18.018838 0
M  V30 81 H 6.374248 7.090325 -12.120892 0
M  V30 82 H 7.449445 8.321681 -11.490858 0
M  V30 83 H 7.786107 7.613646 -13.024582 0
M  V30 84 H 15.341172 10.910559 -20.006508 0
M  V30 85 H 14.316103 5.304329 -17.653391 0
M  V30 86 H 12.695231 5.328760 -17.009791 0
M  V30 87 H 8.000351 5.437743 -20.617672 0
M  V30 88 H 9.089115 4.406077 -19.765006 0
M  V30 89 H 8.600406 6.085066 -22.790238 0
M  V30 90 H 8.984875 7.646354 -23.705238 0
M  V30 91 H 8.634415 2.992434 -14.447881 0
M  V30 92 H 12.772615 6.035483 -21.426718 0
M  V30 93 H 10.293671 6.359938 -18.822634 0
M  V30 94 H 9.311374 7.441890 -19.749206 0
M  V30 95 H 9.560029 5.907782 -13.124027 0
M  V30 96 H 12.122462 8.623436 -20.059961 0
M  V30 97 H 11.449317 9.840871 -8.854117 0
M  V30 98 H 9.532342 5.645648 -6.753830 0
M  V30 99 H 8.250658 5.956271 -17.645955 0
M  V30 100 H 9.361264 5.718884 -15.676390 0
M  V30 101 H 10.534344 4.596361 -14.993778 0
M  V30 102 H 8.771155 7.599694 -10.027461 0
M  V30 END ATOM
M  V30 BEGIN BOND
M  V30 1 1 9 8
M  V30 2 1 10 8
M  V30 3 1 13 3
M  V30 4 1 13 10
M  V30 5 1 14 1
M  V30 6 2 16 14
M  V30 7 1 18 16
M  V30 8 1 20 2
M  V30 9 1 20 11
M  V30 10 1 23 5
M  V30 11 1 23 15
M  V30 12 1 24 4
M  V30 13 1 25 21
M  V30 14 1 26 9
M  V30 15 1 26 12
M  V30 16 1 27 17
M  V30 17 1 28 22
M  V30 18 1 29 7 CFG=3
M  V30 19 1 29 12
M  V30 20 1 30 29
M  V30 21 2 31 24
M  V30 22 1 32 20
M  V30 23 1 33 22
M  V30 24 1 33 25
M  V30 25 2 35 23
M  V30 26 1 36 3
M  V30 27 1 36 9
M  V30 28 1 36 29
M  V30 29 1 37 2
M  V30 30 1 38 5
M  V30 31 1 38 21
M  V30 32 2 39 6
M  V30 33 1 39 19
M  V30 34 1 39 24
M  V30 35 1 40 17
M  V30 36 1 40 27
M  V30 37 1 41 5
M  V30 38 1 41 34
M  V30 39 1 43 15
M  V30 40 1 43 19
M  V30 41 1 43 38
M  V30 42 1 44 10
M  V30 43 2 44 18
M  V30 44 2 45 8
M  V30 45 1 45 14
M  V30 46 1 46 17
M  V30 47 1 46 32
M  V30 48 1 46 34
M  V30 49 1 47 11
M  V30 50 1 47 37
M  V30 51 1 48 7
M  V30 52 1 48 37
M  V30 53 2 48 42
M  V30 54 1 49 1
M  V30 55 1 50 1
M  V30 56 1 51 1
M  V30 57 1 52 3
M  V30 58 1 53 3
M  V30 59 1 54 4
M  V30 60 1 55 4
M  V30 61 1 5 56 CFG=3
M  V30 62 1 57 7
M  V30 63 1 9 58 CFG=3
M  V30 64 1 10 59 CFG=1
M  V30 65 1 60 11
M  V30 66 1 61 11
M  V30 67 1 62 12
M  V30 68 1 63 12
M  V30 69 1 64 13
M  V30 70 1 65 13
M  V30 71 1 66 16
M  V30 72 1 67 17
M  V30 73 1 68 18
M  V30 74 1 69 19
M  V30 75 1 70 19
M  V30 76 1 20 71 CFG=3
M  V30 77 1 72 22
M  V30 78 1 73 22
M  V30 79 1 74 25
M  V30 80 1 75 25
M  V30 81 1 76 26
M  V30 82 1 77 26
M  V30 83 1 78 28
M  V30 84 1 79 28
M  V30 85 1 80 28
M  V30 86 1 81 30
M  V30 87 1 82 30
M  V30 88 1 83 30
M  V30 89 1 84 4
M  V30 90 1 85 33
M  V30 91 1 86 33
M  V30 92 1 87 34
M  V30 93 1 88 34
M  V30 94 1 89 35
M  V30 95 1 90 35
M  V30 96 1 37 91 CFG=1
M  V30 97 1 38 92 CFG=3
M  V30 98 1 93 41
M  V30 99 1 94 41
M  V30 100 1 95 7
M  V30 101 1 43 96 CFG=1
M  V30 102 1 97 44
M  V30 103 1 98 45
M  V30 104 1 46 99 CFG=1
M  V30 105 1 100 47
M  V30 106 1 101 47
M  V30 107 1 36 102 CFG=1
M  V30 END BOND
M  V30 END CTAB
M  END
>  <i_epik_Tot_Q>  (1) 
1

>  <i_epik_Tot_abs_Q>  (1) 
1

>  <i_i_glide_confnum>  (1) 
1245

>  <i_i_glide_lignum>  (1) 
66

>  <i_i_glide_posenum>  (1) 
119

>  <i_i_glide_rotatable_bonds>  (1) 
16

>  <i_lp_mmshare_version>  (1) 
72125

>  <i_m_source_file_index>  (1) 
37

>  <i_f3d_flags>  (1) 
0

>  <num_sample>  (1) 
100

>  <b_lp_Chiralities_Consistent>  (1) 
1

>  <r_epik_Charging_Adjusted_Penalty>  (1) 
0.91210119875661555

>  <r_epik_Ionization_Penalty>  (1) 
0.45605060116919061

>  <r_epik_Ionization_Penalty_Charging>  (1) 
0.45605059937830777

>  <r_epik_Ionization_Penalty_Neutral>  (1) 
1.7908828364046034e-09

>  <r_epik_State_Penalty>  (1) 
0.45605059937830777

>  <r_glide_ring_energy>  (1) 
0.9081224923352812

>  <r_i_docking_score>  (1) 
-6.3698906118296019

>  <r_i_glide_ecoul>  (1) 
-6.0799619276338248

>  <r_i_glide_eff_state_penalty>  (1) 
0.45605059937830777

>  <r_i_glide_einternal>  (1) 
15.308980566439821

>  <r_i_glide_emodel>  (1) 
-49.81609082845857

>  <r_i_glide_emodel_strain>  (1) 
4.2766953313666249

>  <r_i_glide_energy>  (1) 
-48.704582314043002

>  <r_i_glide_erotb>  (1) 
0.43548923687221863

>  <r_i_glide_esite>  (1) 
-0.10000000000000001

>  <r_i_glide_evdw>  (1) 
-42.624620386409177

>  <r_i_glide_gscore>  (1) 
-6.8259412112079101

>  <r_i_glide_gscore_strain>  (1) 
0.069173832841656235

>  <r_i_glide_hbond>  (1) 
-0.1546059413036652

>  <r_i_glide_ligand_efficiency>  (1) 
-0.1327060544131167

>  <r_i_glide_ligand_efficiency_ln>  (1) 
-1.3076632636521781

>  <r_i_glide_ligand_efficiency_sa>  (1) 
-0.48228580853515368

>  <r_i_glide_lipo>  (1) 
-2.4623042938126405

>  <r_i_glide_metal>  (1) 
-0

>  <r_i_glide_rewards>  (1) 
-1.570468737339946

>  <r_lp_Energy>  (1) 
33.757401999999999

>  <r_lp_tautomer_probability>  (1) 
0.99994996000200076

>  <s_epik_Chemistry_Notes>  (1) 
This compound contains an acetal/aminal-like group ( X-CH(R)-Y where X, Y are N, S, or O) that may be acid/base labile, releasing an aldehyde.

>  <s_epik_cmdline>  (1) 
J2VwaWtfcHl0aG9uJywgJy1waHQnLCAnMS4wJywgJy1waCcsICc3LjQnLCAnLXRuJywgJzgnLCAnLW1hJywgJzUwMCcsICctaW1hZScsICc8aW5maWxlLm1hZT4nLCAnLW9tYWUnLCAnPG91dGZpbGUubWFlPic=

>  <s_epik_input>  (1) 
W0NIM11DKFtDSF0xKT1bQ0hdW0NIXT1bQ0hdW0NAQEhdMltDSDJdW0NIMl1OKFtDQEhdM0M9MTIpW0NAXShbQ0gzXSkoW0NIMl1bQ0gyXTMpL1tDSF09QyhbT0hdKS9bQ0BIXShbQ0gyXVtDSDJdNClPW0NASF00T1tDQEhdKFtDSF01T081KVtDSDJdW0NIMl1bQ0BIXTZDKD1bQ0gyXSlTW0NASF0oW0NIMl1DKD1PKUMoPVtDSDJdKVtTSF0pW0NASF02T1tDSDJdW0NIMl1bQ0gyXVtDSDNd

>  <s_glide_docking_method>  (1) 
confgen

>  <s_i_glide_gridfile>  (1) 
gpcr_drd2_6luq_protein_autoprepared_prepared

>  <s_lp_Force_Field>  (1) 
S-OPLS

>  <s_lp_Variant>  (1) 
DiffSBDD_36_num_sample_100-3

>  <s_m_source_file>  (1) 
generated__ligand_DiffSBDD_2026-05-06_prepared.sdf

>  <GenAI_Model>  (1) 
DiffSBDD

>  <Protein>  (1) 
generic_title2

$$$$
DiffSBDD_48_num_sample_100
     RDKit          3D

  0  0  0  0  0  0  0  0  0  0999 V3000
M  V30 BEGIN CTAB
M  V30 COUNTS 51 53 0 0 1
M  V30 BEGIN ATOM
M  V30 1 O 12.634830 7.313033 -2.104032 0
M  V30 2 O 5.834857 6.613685 -14.727770 0
M  V30 3 C 10.377291 6.452785 -6.428542 0
M  V30 4 C 6.483954 5.356802 -14.709304 0
M  V30 5 C 7.583296 6.063364 -12.517036 0
M  V30 6 N 10.401054 7.496846 -7.548376 0
M  V30 7 C 6.900264 4.904730 -13.291326 0 CFG=2
M  V30 8 N 9.496069 7.377279 -8.614785 0
M  V30 9 C 11.732971 9.547167 -4.931162 0
M  V30 10 C 7.783196 3.645656 -13.427226 0
M  V30 11 C 9.446736 6.657135 -10.996958 0
M  V30 12 C 13.034843 8.286108 -1.153200 0
M  V30 13 C 7.872905 5.086113 -10.221282 0
M  V30 14 C 12.146197 7.754814 -3.310798 0
M  V30 15 C 11.137105 8.600354 -5.770042 0
M  V30 16 C 12.243556 9.128364 -3.688124 0
M  V30 17 C 9.028507 5.036681 -9.228275 0
M  V30 18 C 9.814612 6.314080 -9.544853 0 CFG=2
M  V30 19 O 5.714496 4.514088 -12.622544 0
M  V30 20 N 8.497272 5.619576 -11.442111 0 CFG=1 CHG=1
M  V30 21 C 11.034921 7.307430 -5.420973 0
M  V30 22 C 11.528823 6.836404 -4.194868 0
M  V30 23 C 10.585081 8.919775 -7.085408 0
M  V30 24 H 6.443168 7.288120 -14.470979 0
M  V30 25 H 9.357286 6.206879 -6.131543 0
M  V30 26 H 10.952933 5.570046 -6.701386 0
M  V30 27 H 5.835114 4.605804 -15.155098 0
M  V30 28 H 7.358424 5.432515 -15.357124 0
M  V30 29 H 8.197010 6.623591 -13.224768 0
M  V30 30 H 6.849830 6.770441 -12.122498 0
M  V30 31 H 8.520426 7.360450 -8.306461 0
M  V30 32 H 11.802546 10.581636 -5.232767 0
M  V30 33 H 8.738742 3.885739 -13.892915 0
M  V30 34 H 7.991288 3.166268 -12.470668 0
M  V30 35 H 7.299647 2.894296 -14.053608 0
M  V30 36 H 10.320399 6.670578 -11.650187 0
M  V30 37 H 8.980463 7.643774 -11.051337 0
M  V30 38 H 13.434913 7.769496 -0.290839 0
M  V30 39 H 13.834843 8.922144 -1.524093 0
M  V30 40 H 12.193571 8.903217 -0.833011 0
M  V30 41 H 7.101072 5.769302 -9.867655 0
M  V30 42 H 7.402738 4.120207 -10.373042 0
M  V30 43 H 12.705100 9.847872 -3.034777 0
M  V30 44 H 8.685564 4.967452 -8.194722 0
M  V30 45 H 9.656980 4.169368 -9.428118 0
M  V30 46 H 10.889305 6.169341 -9.483864 0
M  V30 47 H 5.923373 4.171331 -11.768009 0
M  V30 48 H 11.440974 5.792589 -3.929870 0
M  V30 49 H 11.278829 9.452337 -7.735721 0
M  V30 50 H 9.601273 9.370993 -7.003573 0
M  V30 51 H 9.060516 4.870585 -11.819234 0
M  V30 END ATOM
M  V30 BEGIN BOND
M  V30 1 1 4 2
M  V30 2 1 6 3
M  V30 3 1 7 4
M  V30 4 1 7 5
M  V30 5 1 8 6
M  V30 6 1 10 7
M  V30 7 1 12 1
M  V30 8 1 14 1
M  V30 9 1 15 9
M  V30 10 2 16 9
M  V30 11 1 16 14
M  V30 12 1 17 13
M  V30 13 1 18 8
M  V30 14 1 18 11
M  V30 15 1 18 17
M  V30 16 1 7 19 CFG=1
M  V30 17 1 20 5
M  V30 18 1 20 11
M  V30 19 1 20 13
M  V30 20 1 21 3
M  V30 21 2 21 15
M  V30 22 2 22 14
M  V30 23 1 22 21
M  V30 24 1 23 6
M  V30 25 1 23 15
M  V30 26 1 24 2
M  V30 27 1 25 3
M  V30 28 1 26 3
M  V30 29 1 27 4
M  V30 30 1 28 4
M  V30 31 1 29 5
M  V30 32 1 30 5
M  V30 33 1 31 8
M  V30 34 1 32 9
M  V30 35 1 33 10
M  V30 36 1 34 10
M  V30 37 1 35 10
M  V30 38 1 36 11
M  V30 39 1 37 11
M  V30 40 1 38 12
M  V30 41 1 39 12
M  V30 42 1 40 12
M  V30 43 1 41 13
M  V30 44 1 42 13
M  V30 45 1 43 16
M  V30 46 1 44 17
M  V30 47 1 45 17
M  V30 48 1 18 46 CFG=3
M  V30 49 1 47 19
M  V30 50 1 48 22
M  V30 51 1 49 23
M  V30 52 1 50 23
M  V30 53 1 20 51 CFG=3
M  V30 END BOND
M  V30 END CTAB
M  END
>  <i_epik_Tot_Q>  (1) 
1

>  <i_epik_Tot_abs_Q>  (1) 
1

>  <i_i_glide_confnum>  (1) 
242

>  <i_i_glide_lignum>  (1) 
89

>  <i_i_glide_posenum>  (1) 
188

>  <i_i_glide_rotatable_bonds>  (1) 
8

>  <i_lp_mmshare_version>  (1) 
72125

>  <i_m_source_file_index>  (1) 
49

>  <i_f3d_flags>  (1) 
0

>  <num_sample>  (1) 
100

>  <b_lp_Chiralities_Consistent>  (1) 
1

>  <r_epik_Charging_Adjusted_Penalty>  (1) 
0.014070542232369893

>  <r_epik_Ionization_Penalty>  (1) 
0.01444304470814459

>  <r_epik_Ionization_Penalty_Charging>  (1) 
0.014070542232369893

>  <r_epik_Ionization_Penalty_Neutral>  (1) 
0.00037250247577469821

>  <r_epik_State_Penalty>  (1) 
-0

>  <r_glide_ring_energy>  (1) 
0.0027901821581941132

>  <r_i_docking_score>  (1) 
-6.368863916350084

>  <r_i_glide_ecoul>  (1) 
-5.9448535155881146

>  <r_i_glide_eff_state_penalty>  (1) 
-0

>  <r_i_glide_einternal>  (1) 
10.777105916464894

>  <r_i_glide_emodel>  (1) 
-54.278640673726549

>  <r_i_glide_emodel_strain>  (1) 
0.058786661161718712

>  <r_i_glide_energy>  (1) 
-38.637347449703043

>  <r_i_glide_erotb>  (1) 
0.89938055447957976

>  <r_i_glide_esite>  (1) 
-0.14314562502532754

>  <r_i_glide_evdw>  (1) 
-32.692493934114928

>  <r_i_glide_gscore>  (1) 
-6.368863916350084

>  <r_i_glide_gscore_strain>  (1) 
0

>  <r_i_glide_hbond>  (1) 
-0.087404951845339793

>  <r_i_glide_ligand_efficiency>  (1) 
-0.27690712679782975

>  <r_i_glide_ligand_efficiency_ln>  (1) 
-1.5400490446385857

>  <r_i_glide_ligand_efficiency_sa>  (1) 
-0.78748703438591861

>  <r_i_glide_lipo>  (1) 
-2.5741121557461266

>  <r_i_glide_metal>  (1) 
-0

>  <r_i_glide_rewards>  (1) 
-1.9372290141689061

>  <r_lp_Energy>  (1) 
33.837268999999999

>  <r_lp_tautomer_probability>  (1) 
1

>  <s_epik_cmdline>  (1) 
J2VwaWtfcHl0aG9uJywgJy1waHQnLCAnMS4wJywgJy1waCcsICc3LjQnLCAnLXRuJywgJzgnLCAnLW1hJywgJzUwMCcsICctaW1hZScsICc8aW5maWxlLm1hZT4nLCAnLW9tYWUnLCAnPG91dGZpbGUubWFlPic=

>  <s_epik_input>  (1) 
W2NIXTFbY0hdYyhPW0NIM10pW2NIXWMoYzEyKVtDSDJdTihbQ0gyXTIpW05IXVtDQEBIXTNbQ0gyXU4oW0NIMl1bQ0gyXTMpW0NIMl1bQ0BAXShbQ0gzXSkoW09IXSlbQ0gyXVtPSF0=

>  <s_glide_docking_method>  (1) 
confgen

>  <s_i_glide_gridfile>  (1) 
gpcr_drd2_6luq_protein_autoprepared_prepared

>  <s_lp_Force_Field>  (1) 
S-OPLS

>  <s_lp_Variant>  (1) 
DiffSBDD_48_num_sample_100-1

>  <s_m_source_file>  (1) 
generated__ligand_DiffSBDD_2026-05-06_prepared.sdf

>  <GenAI_Model>  (1) 
DiffSBDD

>  <Protein>  (1) 
generic_title2

$$$$
DiffSBDD_55_num_sample_100
     RDKit          3D

  0  0  0  0  0  0  0  0  0  0999 V3000
M  V30 BEGIN CTAB
M  V30 COUNTS 51 54 0 0 1
M  V30 BEGIN ATOM
M  V30 1 O 11.673512 8.842895 -8.469025 0
M  V30 2 C 6.944255 0.743937 -16.092997 0
M  V30 3 C 9.497993 6.374853 -11.547744 0
M  V30 4 C 9.036617 3.457182 -12.018595 0
M  V30 5 C 9.034889 6.258853 -8.709269 0 CFG=2
M  V30 6 C 9.833311 7.457086 -9.210995 0 CFG=1
M  V30 7 S 6.393885 1.557558 -13.558458 0
M  V30 8 C 6.746871 0.174435 -14.680025 0
M  V30 9 C 7.434381 2.174549 -15.910482 0
M  V30 10 C 11.089482 8.093116 -6.322192 0
M  V30 11 N 8.279969 5.647963 -11.085005 0 CFG=1 CHG=1
M  V30 12 C 11.264956 7.480908 -8.622510 0 CFG=2
M  V30 13 C 9.725054 7.666977 -10.751601 0 CFG=2
M  V30 14 C 11.400788 6.905425 -7.197235 0
M  V30 15 C 11.834183 9.172210 -7.086928 0
M  V30 16 C 7.077732 4.172300 -14.357689 0
M  V30 17 C 7.883676 4.473590 -11.925781 0 CFG=1
M  V30 18 C 7.462067 2.698521 -14.480993 0 CFG=1
M  V30 19 C 9.402437 4.827975 -8.931391 0
M  V30 20 O 7.789893 2.865031 -16.864322 0
M  V30 21 O 8.635022 8.513010 -11.091673 0
M  V30 22 C 7.262924 4.941989 -13.254288 0
M  V30 23 C 8.185222 5.369308 -9.618561 0 CFG=1
M  V30 24 H 7.651228 0.151821 -16.676021 0
M  V30 25 H 5.995144 0.767159 -16.628585 0
M  V30 26 H 9.388896 6.623799 -12.604331 0
M  V30 27 H 10.382289 5.750971 -11.492844 0
M  V30 28 H 8.709268 2.455126 -12.274463 0
M  V30 29 H 9.826900 3.767316 -12.702722 0
M  V30 30 H 9.479677 3.294075 -11.046900 0
M  V30 31 H 8.602882 6.449830 -7.728067 0
M  V30 32 H 9.337339 8.317317 -8.757108 0
M  V30 33 H 7.662689 -0.317491 -14.348452 0
M  V30 34 H 5.946748 -0.565791 -14.642359 0
M  V30 35 H 11.438809 7.973536 -5.296824 0
M  V30 36 H 10.016111 8.295837 -6.305093 0
M  V30 37 H 11.941090 6.969056 -9.305215 0
M  V30 38 H 10.625902 8.166858 -11.109540 0
M  V30 39 H 10.795164 6.035065 -6.954819 0
M  V30 40 H 12.429778 6.582859 -7.054332 0
M  V30 41 H 12.898384 9.146762 -6.847740 0
M  V30 42 H 11.461102 10.167183 -6.851007 0
M  V30 43 H 6.623399 4.617416 -15.232096 0
M  V30 44 H 7.059313 3.985805 -11.402670 0
M  V30 45 H 8.502382 2.557387 -14.220048 0
M  V30 46 H 9.243731 4.169257 -8.085245 0
M  V30 47 H 10.235014 4.586332 -9.551470 0
M  V30 48 H 7.926319 8.340738 -10.454584 0
M  V30 49 H 6.948916 5.976229 -13.288158 0
M  V30 50 H 7.194038 5.072306 -9.284403 0
M  V30 51 H 7.544358 6.332971 -11.210217 0
M  V30 END ATOM
M  V30 BEGIN BOND
M  V30 1 1 6 5
M  V30 2 1 8 2
M  V30 3 1 8 7
M  V30 4 1 9 2
M  V30 5 1 11 3
M  V30 6 1 12 1
M  V30 7 1 12 6
M  V30 8 1 13 3
M  V30 9 1 13 6
M  V30 10 1 14 10
M  V30 11 1 14 12
M  V30 12 1 15 1
M  V30 13 1 15 10
M  V30 14 1 17 4
M  V30 15 1 17 11
M  V30 16 1 18 7
M  V30 17 1 18 9
M  V30 18 1 18 16
M  V30 19 1 19 5
M  V30 20 2 20 9
M  V30 21 1 21 13
M  V30 22 2 22 16
M  V30 23 1 22 17
M  V30 24 1 23 5
M  V30 25 1 23 11
M  V30 26 1 23 19
M  V30 27 1 24 2
M  V30 28 1 25 2
M  V30 29 1 26 3
M  V30 30 1 27 3
M  V30 31 1 28 4
M  V30 32 1 29 4
M  V30 33 1 30 4
M  V30 34 1 5 31 CFG=1
M  V30 35 1 6 32 CFG=1
M  V30 36 1 33 8
M  V30 37 1 34 8
M  V30 38 1 35 10
M  V30 39 1 36 10
M  V30 40 1 12 37 CFG=3
M  V30 41 1 13 38 CFG=3
M  V30 42 1 39 14
M  V30 43 1 40 14
M  V30 44 1 41 15
M  V30 45 1 42 15
M  V30 46 1 43 16
M  V30 47 1 17 44 CFG=1
M  V30 48 1 18 45 CFG=1
M  V30 49 1 46 19
M  V30 50 1 47 19
M  V30 51 1 48 21
M  V30 52 1 49 22
M  V30 53 1 23 50 CFG=1
M  V30 54 1 11 51 CFG=3
M  V30 END BOND
M  V30 END CTAB
M  END
>  <i_epik_Tot_Q>  (1) 
1

>  <i_epik_Tot_abs_Q>  (1) 
1

>  <i_i_glide_confnum>  (1) 
92

>  <i_i_glide_lignum>  (1) 
103

>  <i_i_glide_posenum>  (1) 
341

>  <i_i_glide_rotatable_bonds>  (1) 
5

>  <i_lp_mmshare_version>  (1) 
72125

>  <i_m_source_file_index>  (1) 
56

>  <i_f3d_flags>  (1) 
0

>  <num_sample>  (1) 
100

>  <b_lp_Chiralities_Consistent>  (1) 
1

>  <r_epik_Charging_Adjusted_Penalty>  (1) 
0.1887110856522376

>  <r_epik_Ionization_Penalty>  (1) 
0.094355642401006162

>  <r_epik_Ionization_Penalty_Charging>  (1) 
0.094355542826118813

>  <r_epik_Ionization_Penalty_Neutral>  (1) 
9.9574887353862298e-08

>  <r_epik_State_Penalty>  (1) 
0.094355542826118799

>  <r_glide_ring_energy>  (1) 
1.1829721722469726

>  <r_i_docking_score>  (1) 
-6.3649576292022561

>  <r_i_glide_ecoul>  (1) 
-9.8923995074018531

>  <r_i_glide_eff_state_penalty>  (1) 
0.094355542826118799

>  <r_i_glide_einternal>  (1) 
8.7983315858326918

>  <r_i_glide_emodel>  (1) 
-44.961499974341052

>  <r_i_glide_emodel_strain>  (1) 
0.88880158775317852

>  <r_i_glide_energy>  (1) 
-35.484524445992875

>  <r_i_glide_erotb>  (1) 
0.49519417565235591

>  <r_i_glide_esite>  (1) 
-0.060276591239253087

>  <r_i_glide_evdw>  (1) 
-25.59212493859102

>  <r_i_glide_gscore>  (1) 
-6.4593131720283745

>  <r_i_glide_gscore_strain>  (1) 
0

>  <r_i_glide_hbond>  (1) 
-0.14840050298411053

>  <r_i_glide_ligand_efficiency>  (1) 
-0.27673728822618504

>  <r_i_glide_ligand_efficiency_ln>  (1) 
-1.5391044689859874

>  <r_i_glide_ligand_efficiency_sa>  (1) 
-0.78700403608011305

>  <r_i_glide_lipo>  (1) 
-1.825589323928885

>  <r_i_glide_metal>  (1) 
-0

>  <r_i_glide_rewards>  (1) 
-2.1567747564886517

>  <r_lp_Energy>  (1) 
19.602328

>  <r_lp_tautomer_probability>  (1) 
0.99995000000000001

>  <s_epik_cmdline>  (1) 
J2VwaWtfcHl0aG9uJywgJy1waHQnLCAnMS4wJywgJy1waCcsICc3LjQnLCAnLXRuJywgJzgnLCAnLW1hJywgJzUwMCcsICctaW1hZScsICc8aW5maWxlLm1hZT4nLCAnLW9tYWUnLCAnPG91dGZpbGUubWFlPic=

>  <s_epik_input>  (1) 
W0NIMl0xW0NIMl1bQ0gyXU9bQ0BASF0xW0NASF0yW0NASF0oW09IXSlbQ0gyXU4oW0NASF0oW0NASF0yMylbQ0gyXTMpW0NASF0oW0NIM10pL1tDSF09W0NIXVxbQ0BIXTRTW0NIMl1bQ0gyXUM0PU8=

>  <s_glide_docking_method>  (1) 
confgen

>  <s_i_glide_gridfile>  (1) 
gpcr_drd2_6luq_protein_autoprepared_prepared

>  <s_lp_Force_Field>  (1) 
S-OPLS

>  <s_lp_Variant>  (1) 
DiffSBDD_55_num_sample_100-4

>  <s_m_source_file>  (1) 
generated__ligand_DiffSBDD_2026-05-06_prepared.sdf

>  <GenAI_Model>  (1) 
DiffSBDD

>  <Protein>  (1) 
generic_title2

$$$$
DiffSBDD_21_num_sample_100
     RDKit          3D

  0  0  0  0  0  0  0  0  0  0999 V3000
M  V30 BEGIN CTAB
M  V30 COUNTS 68 72 0 0 1
M  V30 BEGIN ATOM
M  V30 1 C 5.950314 7.770915 -16.480877 0
M  V30 2 C 7.853387 5.005858 -13.906062 0
M  V30 3 C 11.229952 7.002808 -6.053896 0
M  V30 4 C 7.996959 5.266684 -18.013195 0 CFG=2
M  V30 5 C 10.762141 8.658226 -9.506171 0
M  V30 6 C 8.786418 6.394172 -12.123507 0
M  V30 7 C 8.858461 5.335042 -16.733294 0
M  V30 8 O 8.213906 2.606324 -14.072808 0
M  V30 9 C 11.729938 9.316215 -6.586609 0
M  V30 10 C 8.282504 3.924799 -18.746777 0
M  V30 11 C 6.798247 5.927889 -14.072761 0
M  V30 12 O 9.775026 6.628463 -11.202246 0
M  V30 13 C 9.034369 4.056732 -15.890826 0
M  V30 14 F 10.893174 5.769568 -6.454804 0
M  V30 15 C 9.433022 6.386347 -9.848472 0
M  V30 16 C 6.080771 6.609595 -20.122732 0
M  V30 17 C 7.734664 7.314122 -12.291222 0
M  V30 18 C 11.805995 8.557333 -4.274631 0
M  V30 19 F 5.844574 7.841706 -19.682550 0
M  V30 20 S 8.632207 6.571779 -19.100987 0
M  V30 21 C 5.713421 5.677112 -15.104808 0
M  V30 22 C 6.735442 7.072861 -13.255465 0
M  V30 23 O 9.834812 4.338602 -12.713826 0
M  V30 24 C 7.957432 3.780449 -14.813306 0 CFG=2
M  V30 25 F 12.019590 8.813660 -2.962052 0
M  V30 26 C 11.435186 7.266945 -4.690221 0
M  V30 27 C 7.542040 6.491559 -20.542228 0
M  V30 28 F 5.334042 6.435329 -21.213795 0
M  V30 29 C 5.654424 5.549210 -19.087506 0
M  V30 30 C 11.942075 9.582675 -5.221678 0
M  V30 31 C 11.198286 7.697246 -8.452330 0 CFG=1
M  V30 32 C 6.457369 5.431618 -17.751074 0 CFG=2
M  V30 33 C 5.803990 6.260630 -16.546625 0 CFG=2
M  V30 34 C 11.387000 8.016262 -7.008910 0
M  V30 35 C 9.816006 7.587223 -9.003501 0 CFG=1
M  V30 36 C 8.836149 5.237595 -12.911822 0
M  V30 37 H 6.887303 8.086654 -16.036578 0
M  V30 38 H 5.834585 8.222117 -17.452524 0
M  V30 39 H 5.167442 8.204626 -15.857827 0
M  V30 40 H 11.189961 8.532606 -10.496466 0
M  V30 41 H 10.566074 9.682584 -9.228361 0
M  V30 42 H 8.542087 6.168729 -16.110671 0
M  V30 43 H 9.871215 5.607954 -17.033096 0
M  V30 44 H 8.888389 2.827387 -13.440079 0
M  V30 45 H 11.834719 10.106796 -7.310658 0
M  V30 46 H 7.891860 3.063287 -18.205987 0
M  V30 47 H 7.835199 3.868750 -19.735402 0
M  V30 48 H 9.354384 3.772807 -18.880792 0
M  V30 49 H 9.977610 4.203616 -15.374204 0
M  V30 50 H 9.212297 3.168847 -16.493620 0
M  V30 51 H 8.370610 6.168907 -9.715889 0
M  V30 52 H 9.960425 5.504733 -9.486568 0
M  V30 53 H 7.689810 8.202065 -11.676766 0
M  V30 54 H 5.435253 4.635882 -15.089574 0
M  V30 55 H 4.833077 6.112579 -14.644626 0
M  V30 56 H 5.922437 7.768978 -13.372025 0
M  V30 57 H 10.700557 4.727009 -12.674123 0
M  V30 58 H 7.053170 3.520897 -15.347576 0
M  V30 59 H 11.320744 6.476607 -3.963278 0
M  V30 60 H 7.806701 7.300370 -21.224434 0
M  V30 61 H 7.716187 5.564540 -21.086840 0
M  V30 62 H 4.611775 5.725732 -18.872827 0
M  V30 63 H 5.665916 4.579455 -19.585078 0
M  V30 64 H 12.211959 10.569215 -4.904450 0
M  V30 65 H 11.834772 6.879986 -8.745964 0
M  V30 66 H 6.234858 4.420694 -17.452605 0
M  V30 67 H 4.748855 6.178740 -16.811742 0
M  V30 68 H 9.036282 7.907850 -8.318403 0
M  V30 END ATOM
M  V30 BEGIN BOND
M  V30 1 1 7 4
M  V30 2 1 4 10 CFG=3
M  V30 3 2 11 2
M  V30 4 1 12 6
M  V30 5 1 13 7
M  V30 6 1 14 3
M  V30 7 1 15 12
M  V30 8 1 17 6
M  V30 9 1 19 16
M  V30 10 1 20 4
M  V30 11 1 21 11
M  V30 12 1 22 11
M  V30 13 2 22 17
M  V30 14 1 24 2
M  V30 15 1 24 8
M  V30 16 1 24 13
M  V30 17 1 25 18
M  V30 18 1 26 3
M  V30 19 2 26 18
M  V30 20 1 27 16
M  V30 21 1 27 20
M  V30 22 1 28 16
M  V30 23 1 29 16
M  V30 24 2 30 9
M  V30 25 1 30 18
M  V30 26 1 31 5
M  V30 27 1 32 4
M  V30 28 1 32 29
M  V30 29 1 33 1
M  V30 30 1 33 21
M  V30 31 1 33 32
M  V30 32 2 34 3
M  V30 33 1 34 9
M  V30 34 1 34 31
M  V30 35 1 35 5
M  V30 36 1 35 15
M  V30 37 1 35 31
M  V30 38 1 36 2
M  V30 39 2 36 6
M  V30 40 1 36 23
M  V30 41 1 37 1
M  V30 42 1 38 1
M  V30 43 1 39 1
M  V30 44 1 40 5
M  V30 45 1 41 5
M  V30 46 1 42 7
M  V30 47 1 43 7
M  V30 48 1 44 8
M  V30 49 1 45 9
M  V30 50 1 46 10
M  V30 51 1 47 10
M  V30 52 1 48 10
M  V30 53 1 49 13
M  V30 54 1 50 13
M  V30 55 1 51 15
M  V30 56 1 52 15
M  V30 57 1 53 17
M  V30 58 1 54 21
M  V30 59 1 55 21
M  V30 60 1 56 22
M  V30 61 1 57 23
M  V30 62 1 24 58 CFG=3
M  V30 63 1 59 26
M  V30 64 1 60 27
M  V30 65 1 61 27
M  V30 66 1 62 29
M  V30 67 1 63 29
M  V30 68 1 64 30
M  V30 69 1 31 65 CFG=3
M  V30 70 1 32 66 CFG=1
M  V30 71 1 33 67 CFG=3
M  V30 72 1 35 68 CFG=1
M  V30 END BOND
M  V30 END CTAB
M  END
>  <i_epik_Tot_Q>  (1) 
0

>  <i_epik_Tot_abs_Q>  (1) 
0

>  <i_i_glide_confnum>  (1) 
5

>  <i_i_glide_lignum>  (1) 
34

>  <i_i_glide_posenum>  (1) 
61

>  <i_i_glide_rotatable_bonds>  (1) 
6

>  <i_lp_mmshare_version>  (1) 
72125

>  <i_m_source_file_index>  (1) 
22

>  <i_f3d_flags>  (1) 
0

>  <num_sample>  (1) 
100

>  <b_lp_Chiralities_Consistent>  (1) 
1

>  <r_epik_Charging_Adjusted_Penalty>  (1) 
0

>  <r_epik_Ionization_Penalty>  (1) 
0.0009051571753108589

>  <r_epik_Ionization_Penalty_Charging>  (1) 
0

>  <r_epik_Ionization_Penalty_Neutral>  (1) 
0.0009051571753108589

>  <r_epik_State_Penalty>  (1) 
-0

>  <r_glide_ring_energy>  (1) 
0

>  <r_i_docking_score>  (1) 
-6.3590668567030697

>  <r_i_glide_ecoul>  (1) 
-2.1512897949959697

>  <r_i_glide_eff_state_penalty>  (1) 
-0

>  <r_i_glide_einternal>  (1) 
10.583337944828852

>  <r_i_glide_emodel>  (1) 
-33.21375221682613

>  <r_i_glide_emodel_strain>  (1) 
4.2452521338990437

>  <r_i_glide_energy>  (1) 
-24.197344508832401

>  <r_i_glide_erotb>  (1) 
0.29906164395455315

>  <r_i_glide_esite>  (1) 
0

>  <r_i_glide_evdw>  (1) 
-22.04605471383643

>  <r_i_glide_gscore>  (1) 
-6.3590668567030697

>  <r_i_glide_gscore_strain>  (1) 
0.061313033474760914

>  <r_i_glide_hbond>  (1) 
-0.16364656933112381

>  <r_i_glide_ligand_efficiency>  (1) 
-0.17664074601952973

>  <r_i_glide_ligand_efficiency_ln>  (1) 
-1.3873765860003247

>  <r_i_glide_ligand_efficiency_sa>  (1) 
-0.58325489254696039

>  <r_i_glide_lipo>  (1) 
-3.4868554340815785

>  <r_i_glide_metal>  (1) 
-0

>  <r_i_glide_rewards>  (1) 
-1.643943325778463

>  <r_lp_Energy>  (1) 
74.349186000000003

>  <r_lp_tautomer_probability>  (1) 
1

>  <s_epik_cmdline>  (1) 
J2VwaWtfcHl0aG9uJywgJy1waHQnLCAnMS4wJywgJy1waCcsICc3LjQnLCAnLXRuJywgJzgnLCAnLW1hJywgJzUwMCcsICctaW1hZScsICc8aW5maWxlLm1hZT4nLCAnLW9tYWUnLCAnPG91dGZpbGUubWFlPic=

>  <s_epik_input>  (1) 
UzFbQ0gyXUMoRikoRilbQ0gyXVtDQEhdKFtDQEBdMTJbQ0gzXSlbQ0BIXShbQ0gzXSlbQ0gyXWMzYyhbQ0BIXShbT0hdKVtDSDJdW0NIMl0yKWMoW09IXSljKFtjSF1bY0hdMylPW0NIMl1bQ0BASF00W0NIMl1bQ0hdNGM1W2NIXVtjSF1jKEYpW2NIXWM1Rg==

>  <s_glide_docking_method>  (1) 
confgen

>  <s_i_glide_gridfile>  (1) 
gpcr_drd2_6luq_protein_autoprepared_prepared

>  <s_lp_Force_Field>  (1) 
S-OPLS

>  <s_lp_Variant>  (1) 
DiffSBDD_21_num_sample_100-2

>  <s_m_source_file>  (1) 
generated__ligand_DiffSBDD_2026-05-06_prepared.sdf

>  <GenAI_Model>  (1) 
DiffSBDD

>  <Protein>  (1) 
generic_title2

$$$$
DiffSBDD_27_num_sample_100
     RDKit          3D

  0  0  0  0  0  0  0  0  0  0999 V3000
M  V30 BEGIN CTAB
M  V30 COUNTS 57 57 0 0 1
M  V30 BEGIN ATOM
M  V30 1 C 12.113181 9.197190 -3.608238 0 CFG=2
M  V30 2 C 9.613163 5.604920 -9.132775 0
M  V30 3 N 11.034940 10.169236 -3.491626 0
M  V30 4 C 8.971820 4.348961 -16.456063 0
M  V30 5 C 11.936249 6.939641 -2.909517 0
M  V30 6 C 10.720002 6.683835 -7.130538 0
M  V30 7 N 7.392237 4.969307 -9.841548 0 CHG=1
M  V30 8 C 8.296984 5.062575 -12.773002 0
M  V30 9 C 8.083411 4.387497 -15.201749 0
M  V30 10 C 7.388052 3.019278 -15.048392 0
M  V30 11 C 8.642275 5.585834 -10.293697 0 CFG=2
M  V30 12 C 9.219884 4.906997 -11.549769 0
M  V30 13 C 11.812744 8.260832 -4.806408 0
M  V30 14 C 11.956704 8.281373 -8.559799 0
M  V30 15 C 12.234727 8.243979 -2.362023 0
M  V30 16 O 12.513287 8.569282 -1.212260 0
M  V30 17 C 11.834410 8.698687 -6.086754 0
M  V30 18 N 8.961485 4.639298 -14.025438 0 CHG=1
M  V30 19 N 11.540553 7.895421 -7.206902 0
M  V30 20 C 11.718314 6.969853 -4.199150 0
M  V30 21 C 12.190093 10.139981 -6.411785 0
M  V30 22 C 7.029561 5.503375 -15.387768 0
M  V30 23 C 9.733405 6.635604 -8.283733 0
M  V30 24 H 13.060384 9.713486 -3.769065 0
M  V30 25 H 10.234850 4.732020 -9.005587 0
M  V30 26 H 10.146305 9.719782 -3.356393 0
M  V30 27 H 11.171031 10.770801 -2.689994 0
M  V30 28 H 9.497372 5.293417 -16.602172 0
M  V30 29 H 9.721496 3.559398 -16.400959 0
M  V30 30 H 8.378150 4.166174 -17.352380 0
M  V30 31 H 11.907819 6.050899 -2.295744 0
M  V30 32 H 11.346672 5.790897 -7.104199 0
M  V30 33 H 10.101388 6.695615 -6.234324 0
M  V30 34 H 7.034182 5.553777 -9.092039 0
M  V30 35 H 6.702049 4.967804 -10.576434 0
M  V30 36 H 7.388342 4.482697 -12.613216 0
M  V30 37 H 7.995657 6.105551 -12.882695 0
M  V30 38 H 6.718664 2.985325 -14.187912 0
M  V30 39 H 6.783715 2.784421 -15.926416 0
M  V30 40 H 8.113065 2.212669 -14.935687 0
M  V30 41 H 8.413485 6.616249 -10.557636 0
M  V30 42 H 10.182951 5.366107 -11.777963 0
M  V30 43 H 9.423775 3.851733 -11.356670 0
M  V30 44 H 12.918250 8.795719 -8.546444 0
M  V30 45 H 12.088389 7.407365 -9.197963 0
M  V30 46 H 11.218240 8.938699 -9.020790 0
M  V30 47 H 9.629622 5.354812 -14.276856 0
M  V30 48 H 11.490532 6.077442 -4.759057 0
M  V30 49 H 13.263752 10.289199 -6.291697 0
M  V30 50 H 11.834795 10.440760 -7.388498 0
M  V30 51 H 11.698329 10.850510 -5.755529 0
M  V30 52 H 7.487272 6.491123 -15.435162 0
M  V30 53 H 6.474590 5.367421 -16.317038 0
M  V30 54 H 6.289718 5.516985 -14.587253 0
M  V30 55 H 9.102217 7.504847 -8.410908 0
M  V30 56 H 9.486626 3.795851 -13.839621 0
M  V30 57 H 7.541281 4.033050 -9.496256 0
M  V30 END ATOM
M  V30 BEGIN BOND
M  V30 1 1 3 1
M  V30 2 1 9 4
M  V30 3 1 10 9
M  V30 4 1 11 2
M  V30 5 1 11 7
M  V30 6 1 12 8
M  V30 7 1 12 11
M  V30 8 1 13 1
M  V30 9 1 15 1
M  V30 10 1 15 5
M  V30 11 2 16 15
M  V30 12 2 17 13
M  V30 13 1 18 8
M  V30 14 1 18 9
M  V30 15 1 19 6
M  V30 16 1 19 14
M  V30 17 1 19 17
M  V30 18 2 20 5
M  V30 19 1 20 13
M  V30 20 1 21 17
M  V30 21 1 22 9
M  V30 22 2 23 2
M  V30 23 1 23 6
M  V30 24 1 1 24 CFG=3
M  V30 25 1 25 2
M  V30 26 1 26 3
M  V30 27 1 27 3
M  V30 28 1 28 4
M  V30 29 1 29 4
M  V30 30 1 30 4
M  V30 31 1 31 5
M  V30 32 1 32 6
M  V30 33 1 33 6
M  V30 34 1 34 7
M  V30 35 1 35 7
M  V30 36 1 36 8
M  V30 37 1 37 8
M  V30 38 1 38 10
M  V30 39 1 39 10
M  V30 40 1 40 10
M  V30 41 1 11 41 CFG=3
M  V30 42 1 42 12
M  V30 43 1 43 12
M  V30 44 1 44 14
M  V30 45 1 45 14
M  V30 46 1 46 14
M  V30 47 1 47 18
M  V30 48 1 48 20
M  V30 49 1 49 21
M  V30 50 1 50 21
M  V30 51 1 51 21
M  V30 52 1 52 22
M  V30 53 1 53 22
M  V30 54 1 54 22
M  V30 55 1 55 23
M  V30 56 1 56 18
M  V30 57 1 57 7
M  V30 END BOND
M  V30 END CTAB
M  END
>  <i_epik_Tot_Q>  (1) 
2

>  <i_epik_Tot_abs_Q>  (1) 
2

>  <i_i_glide_confnum>  (1) 
19

>  <i_i_glide_lignum>  (1) 
43

>  <i_i_glide_posenum>  (1) 
270

>  <i_i_glide_rotatable_bonds>  (1) 
8

>  <i_lp_mmshare_version>  (1) 
72125

>  <i_m_source_file_index>  (1) 
28

>  <i_f3d_flags>  (1) 
0

>  <num_sample>  (1) 
100

>  <b_lp_Chiralities_Consistent>  (1) 
1

>  <r_epik_Charging_Adjusted_Penalty>  (1) 
0.47954930221194114

>  <r_epik_Ionization_Penalty>  (1) 
0.082650424812652987

>  <r_epik_Ionization_Penalty_Charging>  (1) 
0.068869463259337155

>  <r_epik_Ionization_Penalty_Neutral>  (1) 
0.013780961553315832

>  <r_epik_State_Penalty>  (1) 
0.41067983895260396

>  <r_glide_ring_energy>  (1) 
0

>  <r_i_docking_score>  (1) 
-6.3450845948649235

>  <r_i_glide_ecoul>  (1) 
-6.2374174337433743

>  <r_i_glide_eff_state_penalty>  (1) 
0.41067983895260396

>  <r_i_glide_einternal>  (1) 
5.3316513870683941

>  <r_i_glide_emodel>  (1) 
-51.381620003740558

>  <r_i_glide_emodel_strain>  (1) 
0.42401142752808596

>  <r_i_glide_energy>  (1) 
-31.010909838676831

>  <r_i_glide_erotb>  (1) 
0.88107071462136088

>  <r_i_glide_esite>  (1) 
-0.084925743013481436

>  <r_i_glide_evdw>  (1) 
-24.773492404933457

>  <r_i_glide_gscore>  (1) 
-6.7557644338175278

>  <r_i_glide_gscore_strain>  (1) 
0

>  <r_i_glide_hbond>  (1) 
-0.028957150330685216

>  <r_i_glide_ligand_efficiency>  (1) 
-0.27587324325499668

>  <r_i_glide_ligand_efficiency_ln>  (1) 
-1.5342989890845078

>  <r_i_glide_ligand_efficiency_sa>  (1) 
-0.78454680711744373

>  <r_i_glide_lipo>  (1) 
-2.6420342795330192

>  <r_i_glide_metal>  (1) 
-0

>  <r_i_glide_rewards>  (1) 
-2.7066307402535235

>  <r_lp_Energy>  (1) 
29.109323

>  <r_lp_tautomer_probability>  (1) 
0.5

>  <s_epik_cmdline>  (1) 
J2VwaWtfcHl0aG9uJywgJy1waHQnLCAnMS4wJywgJy1waCcsICc3LjQnLCAnLXRuJywgJzgnLCAnLW1hJywgJzUwMCcsICctaW1hZScsICc8aW5maWxlLm1hZT4nLCAnLW9tYWUnLCAnPG91dGZpbGUubWFlPic=

>  <s_epik_input>  (1) 
Tz1DMVtDSF09W0NIXUMoXFtDQEhdMVtOSDJdKT1DKFtDSDNdKS9OKFtDSDNdKVtDSDJdXFtDSF09W0NIXVxbQ0BIXShbTkgyXSlbQ0gyXVtDSDJdW05IXUMoW0NIM10pKFtDSDNdKVtDSDNd

>  <s_glide_docking_method>  (1) 
confgen

>  <s_i_glide_gridfile>  (1) 
gpcr_drd2_6luq_protein_autoprepared_prepared

>  <s_lp_Force_Field>  (1) 
S-OPLS

>  <s_lp_Variant>  (1) 
DiffSBDD_27_num_sample_100-1

>  <s_m_source_file>  (1) 
generated__ligand_DiffSBDD_2026-05-06_prepared.sdf

>  <GenAI_Model>  (1) 
DiffSBDD

>  <Protein>  (1) 
generic_title2

$$$$
DiffSBDD_76_num_sample_100
     RDKit          3D

  0  0  0  0  0  0  0  0  0  0999 V3000
M  V30 BEGIN CTAB
M  V30 COUNTS 78 81 0 0 1
M  V30 BEGIN ATOM
M  V30 1 C 6.456157 3.182495 -13.582466 0
M  V30 2 C 7.078021 5.567969 -17.907559 0
M  V30 3 C 6.945148 4.181370 -10.964797 0
M  V30 4 N 5.764297 4.446986 -13.202843 0 CFG=1 CHG=1
M  V30 5 C 6.788532 6.222382 -19.141929 0
M  V30 6 C 11.733721 8.767812 -4.143007 0
M  V30 7 C 12.059325 9.614523 -5.116050 0
M  V30 8 C 10.620056 7.815794 -7.983155 0 CFG=1
M  V30 9 C 7.550285 4.251915 -15.501209 0
M  V30 10 N 9.488853 6.774802 -10.010533 0 CFG=1 CHG=1
M  V30 11 C 9.888682 7.761515 -11.051409 0
M  V30 12 C 6.511116 5.191196 -15.547311 0
M  V30 13 C 12.203920 9.214399 -6.565331 0
M  V30 14 C 5.199595 6.790231 -16.872183 0
M  V30 15 C 8.319166 4.035623 -16.652103 0
M  V30 16 C 10.378465 5.226420 -8.174845 0
M  V30 17 C 7.806954 3.460916 -14.245452 0
M  V30 18 C 9.024694 5.523063 -10.653309 0
M  V30 19 N 8.104167 4.677902 -17.812833 0
M  V30 20 O 8.635154 8.263220 -11.491933 0
M  V30 21 O 5.940920 7.647203 -21.614842 0
M  V30 22 C 11.744569 7.759325 -6.913080 0 CFG=1
M  V30 23 C 5.705307 7.157396 -19.233421 0
M  V30 24 C 7.756654 4.977232 -9.961041 0
M  V30 25 N 8.634876 7.210630 -6.691448 0 CHG=1
M  V30 26 C 10.518463 6.581510 -8.934179 0 CFG=2
M  V30 27 O 7.561730 5.942295 -20.241498 0 CHG=-1
M  V30 28 C 6.198588 5.098595 -11.942387 0
M  V30 29 C 6.257095 5.863573 -16.772080 0
M  V30 30 C 5.637920 5.440422 -14.310979 0
M  V30 31 C 9.283571 8.295439 -7.417143 0
M  V30 32 C 11.442122 7.388025 -4.414169 0
M  V30 33 C 11.434828 6.905565 -5.660087 0
M  V30 34 C 5.378430 7.866992 -20.544277 0
M  V30 35 C 4.925127 7.427207 -18.087485 0
M  V30 36 C 4.270262 8.920951 -20.482409 0
M  V30 37 H 6.524391 2.458245 -12.772651 0
M  V30 38 H 5.835454 2.659668 -14.291557 0
M  V30 39 H 7.693059 3.592924 -11.491268 0
M  V30 40 H 6.234838 3.512526 -10.475192 0
M  V30 41 H 11.663293 9.134382 -3.127528 0
M  V30 42 H 12.234929 10.634854 -4.884488 0
M  V30 43 H 10.935967 8.626688 -8.634373 0
M  V30 44 H 10.441369 7.299086 -11.871312 0
M  V30 45 H 10.502975 8.569270 -10.669260 0
M  V30 46 H 13.257010 9.345759 -6.817660 0
M  V30 47 H 11.672262 9.970347 -7.136891 0
M  V30 48 H 4.589264 7.011503 -16.014560 0
M  V30 49 H 9.123476 3.313885 -16.646128 0
M  V30 50 H 11.272477 5.030171 -7.594028 0
M  V30 51 H 9.530545 5.139460 -7.508412 0
M  V30 52 H 10.296131 4.341543 -8.795462 0
M  V30 53 H 8.262700 2.506659 -14.504005 0
M  V30 54 H 8.497864 3.997536 -13.595896 0
M  V30 55 H 8.811298 5.725984 -11.700176 0
M  V30 56 H 9.806893 4.769246 -10.751160 0
M  V30 57 H 7.963996 8.174423 -10.814775 0
M  V30 58 H 12.595985 7.286579 -7.405613 0
M  V30 59 H 8.010937 4.343852 -9.115021 0
M  V30 60 H 7.137308 5.768815 -9.547340 0
M  V30 61 H 7.611128 7.344257 -6.691719 0
M  V30 62 H 8.813676 6.333135 -7.151424 0
M  V30 63 H 11.473635 6.569437 -9.453389 0
M  V30 64 H 5.322314 5.524108 -11.450186 0
M  V30 65 H 6.819672 5.954461 -12.193089 0
M  V30 66 H 4.599030 5.370003 -14.589339 0
M  V30 67 H 5.776591 6.469405 -13.979665 0
M  V30 68 H 9.424510 9.141018 -6.748146 0
M  V30 69 H 8.635300 8.649545 -8.216730 0
M  V30 70 H 11.214595 6.726001 -3.591658 0
M  V30 71 H 11.209176 5.867897 -5.809397 0
M  V30 72 H 4.107086 8.128104 -18.138491 0
M  V30 73 H 3.348437 8.530587 -20.058688 0
M  V30 74 H 4.606011 9.772884 -19.892977 0
M  V30 75 H 4.040965 9.277828 -21.486410 0
M  V30 76 H 8.975966 7.160756 -5.741143 0
M  V30 77 H 4.823409 4.144528 -13.001582 0
M  V30 78 H 8.668163 7.163970 -9.559059 0
M  V30 END ATOM
M  V30 BEGIN BOND
M  V30 1 1 4 1
M  V30 2 2 5 2
M  V30 3 2 7 6
M  V30 4 1 11 10
M  V30 5 2 12 9
M  V30 6 1 13 7
M  V30 7 1 15 9
M  V30 8 1 17 1
M  V30 9 1 17 9
M  V30 10 1 18 10
M  V30 11 1 19 2
M  V30 12 2 19 15
M  V30 13 1 20 11
M  V30 14 1 22 8
M  V30 15 1 22 13
M  V30 16 1 23 5
M  V30 17 1 24 3
M  V30 18 1 24 18
M  V30 19 1 26 8
M  V30 20 1 26 10
M  V30 21 1 26 16
M  V30 22 1 27 5
M  V30 23 1 28 3
M  V30 24 1 28 4
M  V30 25 1 29 2
M  V30 26 1 29 12
M  V30 27 2 29 14
M  V30 28 1 30 4
M  V30 29 1 30 12
M  V30 30 1 31 8
M  V30 31 1 31 25
M  V30 32 1 32 6
M  V30 33 1 33 22
M  V30 34 2 33 32
M  V30 35 2 34 21
M  V30 36 1 34 23
M  V30 37 1 35 14
M  V30 38 2 35 23
M  V30 39 1 36 34
M  V30 40 1 37 1
M  V30 41 1 38 1
M  V30 42 1 39 3
M  V30 43 1 40 3
M  V30 44 1 41 6
M  V30 45 1 42 7
M  V30 46 1 8 43 CFG=3
M  V30 47 1 44 11
M  V30 48 1 45 11
M  V30 49 1 46 13
M  V30 50 1 47 13
M  V30 51 1 48 14
M  V30 52 1 49 15
M  V30 53 1 50 16
M  V30 54 1 51 16
M  V30 55 1 52 16
M  V30 56 1 53 17
M  V30 57 1 54 17
M  V30 58 1 55 18
M  V30 59 1 56 18
M  V30 60 1 57 20
M  V30 61 1 22 58 CFG=3
M  V30 62 1 59 24
M  V30 63 1 60 24
M  V30 64 1 61 25
M  V30 65 1 62 25
M  V30 66 1 26 63 CFG=3
M  V30 67 1 64 28
M  V30 68 1 65 28
M  V30 69 1 66 30
M  V30 70 1 67 30
M  V30 71 1 68 31
M  V30 72 1 69 31
M  V30 73 1 70 32
M  V30 74 1 71 33
M  V30 75 1 72 35
M  V30 76 1 73 36
M  V30 77 1 74 36
M  V30 78 1 75 36
M  V30 79 1 76 25
M  V30 80 1 4 77 CFG=1
M  V30 81 1 10 78 CFG=1
M  V30 END BOND
M  V30 END CTAB
M  END
>  <i_epik_Tot_Q>  (1) 
2

>  <i_epik_Tot_abs_Q>  (1) 
4

>  <i_i_glide_confnum>  (1) 
1240

>  <i_i_glide_lignum>  (1) 
154

>  <i_i_glide_posenum>  (1) 
63

>  <i_i_glide_rotatable_bonds>  (1) 
12

>  <i_lp_mmshare_version>  (1) 
72125

>  <i_m_source_file_index>  (1) 
77

>  <i_f3d_flags>  (1) 
0

>  <num_sample>  (1) 
100

>  <b_lp_Chiralities_Consistent>  (1) 
1

>  <r_epik_Charging_Adjusted_Penalty>  (1) 
2.7385366295040585

>  <r_epik_Ionization_Penalty>  (1) 
1.4403839023663505

>  <r_epik_Ionization_Penalty_Charging>  (1) 
1.4088334024277234

>  <r_epik_Ionization_Penalty_Neutral>  (1) 
0.03155049993862722

>  <r_epik_State_Penalty>  (1) 
1.3297032270763354

>  <r_glide_ring_energy>  (1) 
0.68305203791256597

>  <r_i_docking_score>  (1) 
-6.3388462050916488

>  <r_i_glide_ecoul>  (1) 
-14.429596198350993

>  <r_i_glide_eff_state_penalty>  (1) 
1.3297032270763354

>  <r_i_glide_einternal>  (1) 
12.722787306167241

>  <r_i_glide_emodel>  (1) 
-50.344970141597429

>  <r_i_glide_emodel_strain>  (1) 
6.0733954913462327

>  <r_i_glide_energy>  (1) 
-40.691237517746231

>  <r_i_glide_erotb>  (1) 
0.66625950385389887

>  <r_i_glide_esite>  (1) 
-0.25643126060946847

>  <r_i_glide_evdw>  (1) 
-26.261641319395242

>  <r_i_glide_gscore>  (1) 
-7.6685494321679837

>  <r_i_glide_gscore_strain>  (1) 
0.51834887283655817

>  <r_i_glide_hbond>  (1) 
-0.55668034993410109

>  <r_i_glide_ligand_efficiency>  (1) 
-0.1760790612525458

>  <r_i_glide_ligand_efficiency_ln>  (1) 
-1.3829649861175866

>  <r_i_glide_ligand_efficiency_sa>  (1) 
-0.5814002503095671

>  <r_i_glide_lipo>  (1) 
-3.3709543103024791

>  <r_i_glide_metal>  (1) 
-0

>  <r_i_glide_rewards>  (1) 
-1.191570392289981

>  <r_lp_Energy>  (1) 
79.955849000000001

>  <r_lp_tautomer_probability>  (1) 
0.99995000000000001

>  <s_epik_Chemistry_Notes>  (1) 
This compound contains an acetal/aminal-like group ( X-CH(R)-Y where X, Y are N, S, or O) that may be acid/base labile, releasing an aldehyde.

>  <s_epik_cmdline>  (1) 
J2VwaWtfcHl0aG9uJywgJy1waHQnLCAnMS4wJywgJy1waCcsICc3LjQnLCAnLXRuJywgJzgnLCAnLW1hJywgJzUwMCcsICctaW1hZScsICc8aW5maWxlLm1hZT4nLCAnLW9tYWUnLCAnPG91dGZpbGUubWFlPic=

>  <s_epik_input>  (1) 
Tz1DKFtDSDNdKWMoYzFbT0hdKVtjSF1bY0hdYyhjMTIpYzNjKFtjSF1uMilbQ0gyXVtDSDJdTihbQ0gyXTMpW0NIMl1bQ0gyXVtDSDJdW0NIMl1OKFtDSDJdW09IXSlbQ0BIXShbQ0gzXSlbQ0BASF0oW0NIMl1bTkgyXSlbQ0BIXTRbQ0gyXVtDSF09W0NIXVtDSF09W0NIXTQ=

>  <s_glide_docking_method>  (1) 
confgen

>  <s_i_glide_gridfile>  (1) 
gpcr_drd2_6luq_protein_autoprepared_prepared

>  <s_lp_Force_Field>  (1) 
S-OPLS

>  <s_lp_Variant>  (1) 
DiffSBDD_76_num_sample_100-3

>  <s_m_source_file>  (1) 
generated__ligand_DiffSBDD_2026-05-06_prepared.sdf

>  <GenAI_Model>  (1) 
DiffSBDD

>  <Protein>  (1) 
generic_title2

$$$$
DiffSBDD_55_num_sample_100
     RDKit          3D

  0  0  0  0  0  0  0  0  0  0999 V3000
M  V30 BEGIN CTAB
M  V30 COUNTS 51 54 0 0 1
M  V30 BEGIN ATOM
M  V30 1 O 6.938088 4.816335 -13.642496 0
M  V30 2 C 12.234784 7.881025 -3.510536 0
M  V30 3 C 9.008181 5.092178 -9.882995 0
M  V30 4 C 9.031524 6.587281 -7.091680 0
M  V30 5 C 9.101605 7.266781 -11.802426 0 CFG=2
M  V30 6 C 7.942615 6.293445 -11.965224 0 CFG=1
M  V30 7 S 11.434840 9.980911 -5.061839 0
M  V30 8 C 11.987992 9.373212 -3.439762 0
M  V30 9 C 11.435186 7.353868 -4.691671 0
M  V30 10 C 5.863429 6.481805 -14.794959 0
M  V30 11 N 9.399308 6.466860 -9.464670 0 CFG=1 CHG=1
M  V30 12 C 7.802385 5.924180 -13.456152 0 CFG=2
M  V30 13 C 8.057324 5.022170 -11.088606 0 CFG=2
M  V30 14 C 7.175229 7.046654 -14.284059 0
M  V30 15 C 5.636729 5.308912 -13.856863 0
M  V30 16 C 11.741970 8.179358 -7.074051 0
M  V30 17 C 10.117556 6.456866 -8.149557 0 CFG=1
M  V30 18 C 11.004659 8.373707 -5.747621 0 CFG=2
M  V30 19 C 10.523172 6.773857 -11.793376 0
M  V30 20 O 11.177395 6.169305 -4.797761 0
M  V30 21 O 6.767806 4.632727 -10.649558 0
M  V30 22 C 11.365834 7.367932 -8.097915 0
M  V30 23 C 9.907215 7.375416 -10.533911 0 CFG=1
M  V30 24 H 13.291206 7.674532 -3.677373 0
M  V30 25 H 11.940084 7.383001 -2.586518 0
M  V30 26 H 8.557232 4.569324 -9.039193 0
M  V30 27 H 9.892006 4.507853 -10.111763 0
M  V30 28 H 9.298543 6.295951 -6.090349 0
M  V30 29 H 8.608275 7.589928 -7.090919 0
M  V30 30 H 8.201032 5.919598 -7.311846 0
M  V30 31 H 8.945224 8.209853 -12.322536 0
M  V30 32 H 7.051012 6.835255 -11.643736 0
M  V30 33 H 12.896587 9.887347 -3.130305 0
M  V30 34 H 11.221909 9.598073 -2.699009 0
M  V30 35 H 5.986876 6.117257 -15.815745 0
M  V30 36 H 5.042705 7.201737 -14.785212 0
M  V30 37 H 8.776219 5.642238 -13.859507 0
M  V30 38 H 8.419120 4.195711 -11.702946 0
M  V30 39 H 7.034744 7.941582 -13.685693 0
M  V30 40 H 7.834824 7.324795 -15.091664 0
M  V30 41 H 5.034824 4.523718 -14.291648 0
M  V30 42 H 5.189871 5.624675 -12.913099 0
M  V30 43 H 12.650250 8.754050 -7.186763 0
M  V30 44 H 10.551592 5.463587 -8.022605 0
M  V30 45 H 9.927722 8.399624 -5.834240 0
M  V30 46 H 11.255576 7.369267 -12.332327 0
M  V30 47 H 10.653706 5.700207 -11.893500 0
M  V30 48 H 6.393501 5.318632 -10.113048 0
M  V30 49 H 11.995201 7.338572 -8.975324 0
M  V30 50 H 10.137206 8.388661 -10.209295 0
M  V30 51 H 8.502714 6.906961 -9.248966 0
M  V30 END ATOM
M  V30 BEGIN BOND
M  V30 1 1 6 5
M  V30 2 1 8 2
M  V30 3 1 8 7
M  V30 4 1 9 2
M  V30 5 1 11 3
M  V30 6 1 12 1
M  V30 7 1 12 6
M  V30 8 1 13 3
M  V30 9 1 13 6
M  V30 10 1 14 10
M  V30 11 1 14 12
M  V30 12 1 15 1
M  V30 13 1 15 10
M  V30 14 1 17 4
M  V30 15 1 17 11
M  V30 16 1 18 7
M  V30 17 1 18 9
M  V30 18 1 18 16
M  V30 19 1 19 5
M  V30 20 2 20 9
M  V30 21 1 21 13
M  V30 22 2 22 16
M  V30 23 1 22 17
M  V30 24 1 23 5
M  V30 25 1 23 11
M  V30 26 1 23 19
M  V30 27 1 24 2
M  V30 28 1 25 2
M  V30 29 1 26 3
M  V30 30 1 27 3
M  V30 31 1 28 4
M  V30 32 1 29 4
M  V30 33 1 30 4
M  V30 34 1 5 31 CFG=3
M  V30 35 1 6 32 CFG=1
M  V30 36 1 33 8
M  V30 37 1 34 8
M  V30 38 1 35 10
M  V30 39 1 36 10
M  V30 40 1 12 37 CFG=3
M  V30 41 1 13 38 CFG=3
M  V30 42 1 39 14
M  V30 43 1 40 14
M  V30 44 1 41 15
M  V30 45 1 42 15
M  V30 46 1 43 16
M  V30 47 1 17 44 CFG=1
M  V30 48 1 18 45 CFG=3
M  V30 49 1 46 19
M  V30 50 1 47 19
M  V30 51 1 48 21
M  V30 52 1 49 22
M  V30 53 1 23 50 CFG=1
M  V30 54 1 11 51 CFG=1
M  V30 END BOND
M  V30 END CTAB
M  END
>  <i_epik_Tot_Q>  (1) 
1

>  <i_epik_Tot_abs_Q>  (1) 
1

>  <i_i_glide_confnum>  (1) 
133

>  <i_i_glide_lignum>  (1) 
107

>  <i_i_glide_posenum>  (1) 
140

>  <i_i_glide_rotatable_bonds>  (1) 
5

>  <i_lp_mmshare_version>  (1) 
72125

>  <i_m_source_file_index>  (1) 
56

>  <i_f3d_flags>  (1) 
0

>  <num_sample>  (1) 
100

>  <b_lp_Chiralities_Consistent>  (1) 
1

>  <r_epik_Charging_Adjusted_Penalty>  (1) 
0.1887110856522376

>  <r_epik_Ionization_Penalty>  (1) 
0.094355642401006162

>  <r_epik_Ionization_Penalty_Charging>  (1) 
0.094355542826118813

>  <r_epik_Ionization_Penalty_Neutral>  (1) 
9.9574887353862298e-08

>  <r_epik_State_Penalty>  (1) 
0.094355542826118799

>  <r_glide_ring_energy>  (1) 
1.2361918707854118

>  <r_i_docking_score>  (1) 
-6.3344570816243344

>  <r_i_glide_ecoul>  (1) 
-4.2160290073912146

>  <r_i_glide_eff_state_penalty>  (1) 
0.094355542826118799

>  <r_i_glide_einternal>  (1) 
5.6959906406747578

>  <r_i_glide_emodel>  (1) 
-50.548974623286213

>  <r_i_glide_emodel_strain>  (1) 
3.2938558124273811

>  <r_i_glide_energy>  (1) 
-41.187048840352027

>  <r_i_glide_erotb>  (1) 
0.49519417565235591

>  <r_i_glide_esite>  (1) 
-0.10000000000000001

>  <r_i_glide_evdw>  (1) 
-36.971019832960813

>  <r_i_glide_gscore>  (1) 
-6.4288126244504529

>  <r_i_glide_gscore_strain>  (1) 
0

>  <r_i_glide_hbond>  (1) 
-0.20000000000000001

>  <r_i_glide_ligand_efficiency>  (1) 
-0.27541117746192756

>  <r_i_glide_ligand_efficiency_ln>  (1) 
-1.531729160017971

>  <r_i_glide_ligand_efficiency_sa>  (1) 
-0.78323275346601562

>  <r_i_glide_lipo>  (1) 
-2.1099860380404865

>  <r_i_glide_metal>  (1) 
-0

>  <r_i_glide_rewards>  (1) 
-2.0330654193055988

>  <r_lp_Energy>  (1) 
19.031651

>  <r_lp_tautomer_probability>  (1) 
0.99995000000000001

>  <s_epik_cmdline>  (1) 
J2VwaWtfcHl0aG9uJywgJy1waHQnLCAnMS4wJywgJy1waCcsICc3LjQnLCAnLXRuJywgJzgnLCAnLW1hJywgJzUwMCcsICctaW1hZScsICc8aW5maWxlLm1hZT4nLCAnLW9tYWUnLCAnPG91dGZpbGUubWFlPic=

>  <s_epik_input>  (1) 
W0NIMl0xW0NIMl1bQ0gyXU9bQ0BASF0xW0NASF0yW0NASF0oW09IXSlbQ0gyXU4oW0NASF0oW0NASF0yMylbQ0gyXTMpW0NASF0oW0NIM10pL1tDSF09W0NIXVxbQ0BASF00U1tDSDJdW0NIMl1DND1P

>  <s_glide_docking_method>  (1) 
confgen

>  <s_i_glide_gridfile>  (1) 
gpcr_drd2_6luq_protein_autoprepared_prepared

>  <s_lp_Force_Field>  (1) 
S-OPLS

>  <s_lp_Variant>  (1) 
DiffSBDD_55_num_sample_100-8

>  <s_m_source_file>  (1) 
generated__ligand_DiffSBDD_2026-05-06_prepared.sdf

>  <GenAI_Model>  (1) 
DiffSBDD

>  <Protein>  (1) 
generic_title2

$$$$
DiffSBDD_30_num_sample_100
     RDKit          3D

  0  0  0  0  0  0  0  0  0  0999 V3000
M  V30 BEGIN CTAB
M  V30 COUNTS 49 51 0 0 1
M  V30 BEGIN ATOM
M  V30 1 C 7.278677 6.340867 -15.547106 0
M  V30 2 C 5.746843 5.738668 -19.130994 0
M  V30 3 S 7.702619 6.572737 -12.142319 0
M  V30 4 C 8.597150 5.677169 -10.945822 0
M  V30 5 F 12.287173 9.774397 -6.022663 0
M  V30 6 C 7.130230 5.205400 -14.510002 0 CFG=1
M  V30 7 C 8.237878 5.415462 -13.443606 0 CFG=2
M  V30 8 C 7.234318 5.988844 -19.034463 0
M  V30 9 C 5.706686 5.176663 -13.912593 0
M  V30 10 C 6.224733 6.497916 -16.660704 0
M  V30 11 C 9.409509 5.597134 -8.606899 0
M  V30 12 C 10.185733 6.706673 -7.917036 0
M  V30 13 C 11.752871 8.578936 -8.023607 0
M  V30 14 N 8.634894 6.169246 -9.703669 0
M  V30 15 C 11.606019 8.779883 -6.638791 0
M  V30 16 F 11.184253 7.367853 -10.000473 0
M  V30 17 C 8.367761 2.805891 -12.931870 0
M  V30 18 C 6.459853 5.547874 -17.813422 0
M  V30 19 C 11.044435 7.548474 -8.665143 0
M  V30 20 N 9.176588 4.570548 -11.396249 0 CHG=1
M  V30 21 C 10.044120 6.908577 -6.529628 0
M  V30 22 C 10.753725 7.944722 -5.892516 0
M  V30 23 O 5.506127 4.169570 -12.947393 0
M  V30 24 C 9.004745 4.198129 -12.803985 0 CFG=2
M  V30 25 H 7.343507 7.295710 -15.022678 0
M  V30 26 H 8.243146 6.168973 -16.028331 0
M  V30 27 H 5.413275 4.841460 -19.648217 0
M  V30 28 H 5.101059 6.607979 -19.242044 0
M  V30 29 H 7.300987 4.273950 -15.046646 0
M  V30 30 H 9.046938 5.956205 -13.929327 0
M  V30 31 H 7.570463 7.022281 -19.088030 0
M  V30 32 H 7.901616 5.260656 -19.489788 0
M  V30 33 H 5.034832 4.968396 -14.720014 0
M  V30 34 H 5.393682 6.142493 -13.514173 0
M  V30 35 H 5.203854 6.390895 -16.299155 0
M  V30 36 H 6.275103 7.516900 -17.048143 0
M  V30 37 H 8.730074 5.112613 -7.905788 0
M  V30 38 H 10.108543 4.844146 -8.965845 0
M  V30 39 H 12.407595 9.219404 -8.595918 0
M  V30 40 H 8.055878 7.010585 -9.490540 0
M  V30 41 H 8.093120 2.566578 -13.957984 0
M  V30 42 H 9.075981 2.038170 -12.624076 0
M  V30 43 H 7.482971 2.699385 -12.308190 0
M  V30 44 H 6.635606 4.520173 -17.499134 0
M  V30 45 H 9.388096 6.270884 -5.953527 0
M  V30 46 H 10.643804 8.099189 -4.831112 0
M  V30 47 H 5.924025 4.435679 -12.142313 0
M  V30 48 H 9.991361 4.160301 -13.259168 0
M  V30 49 H 9.722561 3.977569 -10.788348 0
M  V30 END ATOM
M  V30 BEGIN BOND
M  V30 1 1 4 3
M  V30 2 1 6 1
M  V30 3 1 7 3
M  V30 4 1 7 6
M  V30 5 1 8 2
M  V30 6 1 9 6
M  V30 7 1 10 1
M  V30 8 1 12 11
M  V30 9 1 14 4
M  V30 10 1 14 11
M  V30 11 1 15 5
M  V30 12 2 15 13
M  V30 13 1 18 2
M  V30 14 1 18 8
M  V30 15 1 18 10
M  V30 16 2 19 12
M  V30 17 1 19 13
M  V30 18 1 19 16
M  V30 19 2 20 4
M  V30 20 1 21 12
M  V30 21 1 22 15
M  V30 22 2 22 21
M  V30 23 1 23 9
M  V30 24 1 24 7
M  V30 25 1 24 17
M  V30 26 1 24 20
M  V30 27 1 25 1
M  V30 28 1 26 1
M  V30 29 1 27 2
M  V30 30 1 28 2
M  V30 31 1 6 29 CFG=3
M  V30 32 1 7 30 CFG=3
M  V30 33 1 31 8
M  V30 34 1 32 8
M  V30 35 1 33 9
M  V30 36 1 34 9
M  V30 37 1 35 10
M  V30 38 1 36 10
M  V30 39 1 37 11
M  V30 40 1 38 11
M  V30 41 1 39 13
M  V30 42 1 40 14
M  V30 43 1 41 17
M  V30 44 1 42 17
M  V30 45 1 43 17
M  V30 46 1 44 18
M  V30 47 1 45 21
M  V30 48 1 46 22
M  V30 49 1 47 23
M  V30 50 1 24 48 CFG=3
M  V30 51 1 49 20
M  V30 END BOND
M  V30 END CTAB
M  END
>  <i_epik_Tot_Q>  (1) 
1

>  <i_epik_Tot_abs_Q>  (1) 
1

>  <i_i_glide_confnum>  (1) 
149

>  <i_i_glide_lignum>  (1) 
55

>  <i_i_glide_posenum>  (1) 
362

>  <i_i_glide_rotatable_bonds>  (1) 
9

>  <i_lp_mmshare_version>  (1) 
72125

>  <i_m_source_file_index>  (1) 
31

>  <i_f3d_flags>  (1) 
0

>  <num_sample>  (1) 
100

>  <b_lp_Chiralities_Consistent>  (1) 
1

>  <r_epik_Charging_Adjusted_Penalty>  (1) 
0.10703469102833196

>  <r_epik_Ionization_Penalty>  (1) 
0.069318960315332093

>  <r_epik_Ionization_Penalty_Charging>  (1) 
0.03959288354667883

>  <r_epik_Ionization_Penalty_Neutral>  (1) 
0.029726076768653267

>  <r_epik_State_Penalty>  (1) 
0.06744180748165314

>  <r_glide_ring_energy>  (1) 
0

>  <r_i_docking_score>  (1) 
-6.3307544281866335

>  <r_i_glide_ecoul>  (1) 
-10.009486126529705

>  <r_i_glide_eff_state_penalty>  (1) 
0.06744180748165314

>  <r_i_glide_einternal>  (1) 
4.5000932616826672

>  <r_i_glide_emodel>  (1) 
-50.079823676729333

>  <r_i_glide_emodel_strain>  (1) 
0.9150768724428886

>  <r_i_glide_energy>  (1) 
-36.591698897008854

>  <r_i_glide_erotb>  (1) 
1.0592382888714553

>  <r_i_glide_esite>  (1) 
-0.15073106392827196

>  <r_i_glide_evdw>  (1) 
-26.582212770479149

>  <r_i_glide_gscore>  (1) 
-6.3981962356682862

>  <r_i_glide_gscore_strain>  (1) 
0

>  <r_i_glide_hbond>  (1) 
-0.13515858767300043

>  <r_i_glide_ligand_efficiency>  (1) 
-0.26378143450777641

>  <r_i_glide_ligand_efficiency_ln>  (1) 
-1.5152400340565773

>  <r_i_glide_ligand_efficiency_sa>  (1) 
-0.76087732114782458

>  <r_i_glide_lipo>  (1) 
-2.1529804929774436

>  <r_i_glide_metal>  (1) 
-0

>  <r_i_glide_rewards>  (1) 
-2.1880308224576117

>  <r_lp_Energy>  (1) 
13.443218999999999

>  <s_epik_Chemistry_Notes>  (1) 
This compound has an imine and may undergo hydrolysis.

>  <s_epik_cmdline>  (1) 
J2VwaWtfcHl0aG9uJywgJy1waHQnLCAnMS4wJywgJy1waCcsICc3LjQnLCAnLXRuJywgJzgnLCAnLW1hJywgJzUwMCcsICctaW1hZScsICc8aW5maWxlLm1hZT4nLCAnLW9tYWUnLCAnPG91dGZpbGUubWFlPic=

>  <s_epik_input>  (1) 
W0NIMl0xW0NIMl1bQ0hdMVtDSDJdW0NIMl1bQ0BIXShbQ0gyXVtPSF0pW0NAQEhdKFMyKVtDQEhdKFtDSDNdKU49QzJbTkhdW0NIMl1jM2MoRilbY0hdYyhGKVtjSF1bY0hdMw==

>  <s_glide_docking_method>  (1) 
confgen

>  <s_i_glide_gridfile>  (1) 
gpcr_drd2_6luq_protein_autoprepared_prepared

>  <s_lp_Force_Field>  (1) 
S-OPLS

>  <s_lp_Variant>  (1) 
DiffSBDD_30_num_sample_100-1

>  <s_m_source_file>  (1) 
generated__ligand_DiffSBDD_2026-05-06_prepared.sdf

>  <GenAI_Model>  (1) 
DiffSBDD

>  <Protein>  (1) 
generic_title2

$$$$
DiffSBDD_67_num_sample_100
     RDKit          3D

  0  0  0  0  0  0  0  0  0  0999 V3000
M  V30 BEGIN CTAB
M  V30 COUNTS 79 83 0 0 1
M  V30 BEGIN ATOM
M  V30 1 C 7.289862 5.174755 -16.948682 0 CFG=2
M  V30 2 C 5.205040 6.134004 -18.199958 0 CFG=1
M  V30 3 C 4.321733 7.374242 -18.006325 0
M  V30 4 C 5.224231 5.661415 -19.679634 0 CFG=1
M  V30 5 C 8.546943 6.690999 -12.953532 0
M  V30 6 C 6.948876 5.423288 -14.452948 0
M  V30 7 C 11.214372 6.794418 -6.246282 0
M  V30 8 C 11.429663 9.070324 -7.088361 0
M  V30 9 C 7.573976 6.109898 -20.681971 0 CFG=2
M  V30 10 C 12.055687 7.769313 -9.729960 0
M  V30 11 C 8.738391 7.483489 -11.645001 0
M  V30 12 C 11.427067 7.263088 -4.933593 0
M  V30 13 C 9.526721 7.375341 -9.221609 0
M  V30 14 O 11.764355 7.768480 -10.938364 0 CHG=-1
M  V30 15 F 11.833468 10.848853 -5.565231 0
M  V30 16 C 8.432236 4.322014 -11.090057 0
M  V30 17 O 13.135238 8.169214 -9.241765 0
M  V30 18 C 6.093981 6.551284 -20.608767 0
M  V30 19 C 7.948227 5.134641 -19.549417 0 CFG=2
M  V30 20 C 11.220497 7.699955 -7.328494 0
M  V30 21 C 7.086290 3.864935 -19.694288 0
M  V30 22 N 8.070286 4.292222 -12.504323 0
M  V30 23 C 9.537626 5.296129 -10.713017 0
M  V30 24 N 9.034824 6.654020 -10.444651 0 CFG=2 CHG=1
M  V30 25 C 5.581578 4.165457 -19.824841 0
M  V30 26 C 7.494108 5.555768 -12.994370 0 CFG=1
M  V30 27 C 9.025372 4.168811 -15.471784 0
M  V30 28 C 11.002155 7.189167 -8.756636 0 CFG=2
M  V30 29 O 8.433232 7.233432 -20.695551 0
M  V30 30 C 7.873718 5.814376 -18.182770 0 CFG=1
M  V30 31 C 6.579004 6.354333 -17.582406 0 CFG=2
M  V30 32 O 11.432830 6.389301 -3.888607 0
M  V30 33 C 11.636729 8.635552 -4.702670 0
M  V30 34 C 7.186281 3.139729 -12.691915 0
M  V30 35 C 11.635154 9.535843 -5.782166 0
M  V30 36 C 7.986081 5.285521 -15.607728 0 CFG=1
M  V30 37 H 6.774286 4.225909 -17.056007 0
M  V30 38 H 4.721330 5.369646 -17.598755 0
M  V30 39 H 4.688492 8.210871 -18.596918 0
M  V30 40 H 3.288852 7.181653 -18.290045 0
M  V30 41 H 4.306922 7.689513 -16.961690 0
M  V30 42 H 4.200117 5.751617 -20.035764 0
M  V30 43 H 9.505121 6.300941 -13.297320 0
M  V30 44 H 8.234890 7.437719 -13.682809 0
M  V30 45 H 6.184293 4.653914 -14.533432 0
M  V30 46 H 6.384975 6.335621 -14.650043 0
M  V30 47 H 11.055151 5.743272 -6.425079 0
M  V30 48 H 11.436069 9.767414 -7.912413 0
M  V30 49 H 11.199363 5.505719 -4.136268 0
M  V30 50 H 7.728931 5.590772 -21.628747 0
M  V30 51 H 7.833367 8.067882 -11.485904 0
M  V30 52 H 9.526462 8.217624 -11.800467 0
M  V30 53 H 8.904971 6.993687 -8.409356 0
M  V30 54 H 9.286400 8.438093 -9.295167 0
M  V30 55 H 8.907939 3.368372 -10.884025 0
M  V30 56 H 7.559782 4.422527 -10.441242 0
M  V30 57 H 5.679633 6.521071 -21.617542 0
M  V30 58 H 6.021229 7.594681 -20.301839 0
M  V30 59 H 8.987184 4.831480 -19.682105 0
M  V30 60 H 7.278183 3.161076 -18.885765 0
M  V30 61 H 7.402811 3.336340 -20.594232 0
M  V30 62 H 10.298671 5.299219 -11.491577 0
M  V30 63 H 9.952614 4.886408 -9.796536 0
M  V30 64 H 5.034595 3.565511 -19.099314 0
M  V30 65 H 5.244819 3.825862 -20.805875 0
M  V30 66 H 6.652459 5.819506 -12.350607 0
M  V30 67 H 8.553733 3.188892 -15.406105 0
M  V30 68 H 9.699244 4.155365 -16.329335 0
M  V30 69 H 9.640527 4.328701 -14.588468 0
M  V30 70 H 11.224847 6.135090 -8.689671 0
M  V30 71 H 8.238439 7.756414 -21.458188 0
M  V30 72 H 8.739692 6.451494 -18.019859 0
M  V30 73 H 6.646443 7.289062 -17.027510 0
M  V30 74 H 11.800532 8.997432 -3.697450 0
M  V30 75 H 7.017825 2.915682 -13.741895 0
M  V30 76 H 7.639908 2.234498 -12.291798 0
M  V30 77 H 6.218598 3.290121 -12.209739 0
M  V30 78 H 8.580965 6.184330 -15.622081 0
M  V30 79 H 8.084750 6.487376 -10.127267 0
M  V30 END ATOM
M  V30 BEGIN BOND
M  V30 1 1 3 2
M  V30 2 1 4 2
M  V30 3 1 11 5
M  V30 4 2 12 7
M  V30 5 1 14 10
M  V30 6 2 17 10
M  V30 7 1 18 4
M  V30 8 1 18 9
M  V30 9 1 19 9
M  V30 10 1 20 7
M  V30 11 2 20 8
M  V30 12 1 21 19
M  V30 13 1 22 16
M  V30 14 1 23 16
M  V30 15 1 24 11
M  V30 16 1 24 13
M  V30 17 1 24 23
M  V30 18 1 25 4
M  V30 19 1 25 21
M  V30 20 1 26 5
M  V30 21 1 26 6
M  V30 22 1 26 22
M  V30 23 1 28 10
M  V30 24 1 28 13
M  V30 25 1 28 20
M  V30 26 1 29 9
M  V30 27 1 30 1
M  V30 28 1 30 19
M  V30 29 1 31 1
M  V30 30 1 31 2
M  V30 31 1 31 30
M  V30 32 1 32 12
M  V30 33 1 33 12
M  V30 34 1 34 22
M  V30 35 1 35 8
M  V30 36 1 35 15
M  V30 37 2 35 33
M  V30 38 1 36 1
M  V30 39 1 36 6
M  V30 40 1 36 27
M  V30 41 1 1 37 CFG=3
M  V30 42 1 2 38 CFG=1
M  V30 43 1 39 3
M  V30 44 1 40 3
M  V30 45 1 41 3
M  V30 46 1 4 42 CFG=3
M  V30 47 1 43 5
M  V30 48 1 44 5
M  V30 49 1 45 6
M  V30 50 1 46 6
M  V30 51 1 47 7
M  V30 52 1 48 8
M  V30 53 1 49 32
M  V30 54 1 9 50 CFG=3
M  V30 55 1 51 11
M  V30 56 1 52 11
M  V30 57 1 53 13
M  V30 58 1 54 13
M  V30 59 1 55 16
M  V30 60 1 56 16
M  V30 61 1 57 18
M  V30 62 1 58 18
M  V30 63 1 19 59 CFG=3
M  V30 64 1 60 21
M  V30 65 1 61 21
M  V30 66 1 62 23
M  V30 67 1 63 23
M  V30 68 1 64 25
M  V30 69 1 65 25
M  V30 70 1 26 66 CFG=1
M  V30 71 1 67 27
M  V30 72 1 68 27
M  V30 73 1 69 27
M  V30 74 1 28 70 CFG=1
M  V30 75 1 71 29
M  V30 76 1 30 72 CFG=1
M  V30 77 1 31 73 CFG=1
M  V30 78 1 74 33
M  V30 79 1 75 34
M  V30 80 1 76 34
M  V30 81 1 77 34
M  V30 82 1 36 78 CFG=3
M  V30 83 1 24 79 CFG=1
M  V30 END BOND
M  V30 END CTAB
M  END
>  <i_epik_Tot_Q>  (1) 
0

>  <i_epik_Tot_abs_Q>  (1) 
2

>  <i_i_glide_confnum>  (1) 
59

>  <i_i_glide_lignum>  (1) 
133

>  <i_i_glide_posenum>  (1) 
204

>  <i_i_glide_rotatable_bonds>  (1) 
9

>  <i_lp_mmshare_version>  (1) 
72125

>  <i_m_source_file_index>  (1) 
68

>  <i_f3d_flags>  (1) 
0

>  <num_sample>  (1) 
100

>  <b_lp_Chiralities_Consistent>  (1) 
1

>  <r_epik_Charging_Adjusted_Penalty>  (1) 
0.12241089881330544

>  <r_epik_Ionization_Penalty>  (1) 
0.01898901772236716

>  <r_epik_Ionization_Penalty_Charging>  (1) 
0.00080544074301080722

>  <r_epik_Ionization_Penalty_Neutral>  (1) 
0.018183576979356353

>  <r_epik_State_Penalty>  (1) 
0.12160545807029463

>  <r_glide_ring_energy>  (1) 
0.59912657946458703

>  <r_i_docking_score>  (1) 
-6.329022037702865

>  <r_i_glide_ecoul>  (1) 
-6.4872189478580671

>  <r_i_glide_eff_state_penalty>  (1) 
0.12160545807029463

>  <r_i_glide_einternal>  (1) 
34.747832751686182

>  <r_i_glide_emodel>  (1) 
-20.418729921571202

>  <r_i_glide_emodel_strain>  (1) 
2.3094641733227661

>  <r_i_glide_energy>  (1) 
-34.363378153581955

>  <r_i_glide_erotb>  (1) 
0.48522832276191719

>  <r_i_glide_esite>  (1) 
-0.095320180082981959

>  <r_i_glide_evdw>  (1) 
-27.876159205723891

>  <r_i_glide_gscore>  (1) 
-6.4506274957731593

>  <r_i_glide_gscore_strain>  (1) 
0

>  <r_i_glide_hbond>  (1) 
-0.098316588494129983

>  <r_i_glide_ligand_efficiency>  (1) 
-0.17580616771396848

>  <r_i_glide_ligand_efficiency_ln>  (1) 
-1.3808216182116839

>  <r_i_glide_ligand_efficiency_sa>  (1) 
-0.58049917569849141

>  <r_i_glide_lipo>  (1) 
-3.1577170624440658

>  <r_i_glide_metal>  (1) 
-0

>  <r_i_glide_rewards>  (1) 
-1.2176111850489932

>  <r_lp_Energy>  (1) 
56.91601

>  <r_lp_tautomer_probability>  (1) 
0.99999999999736477

>  <s_epik_cmdline>  (1) 
J2VwaWtfcHl0aG9uJywgJy1waHQnLCAnMS4wJywgJy1waCcsICc3LjQnLCAnLXRuJywgJzgnLCAnLW1hJywgJzUwMCcsICctaW1hZScsICc8aW5maWxlLm1hZT4nLCAnLW9tYWUnLCAnPG91dGZpbGUubWFlPic=

>  <s_epik_input>  (1) 
W0NIM11bQ0BASF0oW0NAQEhdMTIpW0NAQEhdM1tDQEhdKFtDQEhdKFtDQEBIXShbQ0gyXTEpW09IXSlbQ0gyXVtDSDJdMilbQ0BIXTNbQ0BIXShbQ0gzXSlbQ0gyXVtDQEBIXTRbQ0gyXVtDSDJdTihbQ0gyXVtDSDJdTjRbQ0gzXSlbQ0gyXVtDQEBIXShDKD1PKVtPSF0pQyg9W0NIXUM1PU8pW0NIMl1DKEYpPVtDSF01

>  <s_glide_docking_method>  (1) 
confgen

>  <s_i_glide_gridfile>  (1) 
gpcr_drd2_6luq_protein_autoprepared_prepared

>  <s_lp_Force_Field>  (1) 
S-OPLS

>  <s_lp_Variant>  (1) 
DiffSBDD_67_num_sample_100-1

>  <s_m_source_file>  (1) 
generated__ligand_DiffSBDD_2026-05-06_prepared.sdf

>  <GenAI_Model>  (1) 
DiffSBDD

>  <Protein>  (1) 
generic_title2

$$$$
DiffSBDD_90_num_sample_100
     RDKit          3D

  0  0  0  0  0  0  0  0  0  0999 V3000
M  V30 BEGIN CTAB
M  V30 COUNTS 61 65 0 0 1
M  V30 BEGIN ATOM
M  V30 1 C 7.849121 5.348967 -20.902234 0
M  V30 2 C 7.557612 5.336085 -17.665437 0
M  V30 3 C 11.031603 7.762497 -9.031413 0
M  V30 4 S 7.458779 5.867080 -22.519952 0
M  V30 5 C 6.174813 6.512658 -16.003375 0
M  V30 6 C 5.902968 6.969319 -18.368850 0
M  V30 7 C 5.521044 7.223229 -17.047240 0
M  V30 8 C 9.887606 7.350501 -9.988829 0
M  V30 9 C 10.276829 7.186664 -6.672394 0
M  V30 10 C 11.709191 9.199297 -7.056149 0
M  V30 11 N 9.034832 6.169970 -9.628922 0 CFG=2 CHG=1
M  V30 12 C 9.324013 5.485526 -8.339900 0
M  V30 13 C 6.349355 5.733486 -11.043394 0
M  V30 14 C 7.456906 5.089829 -13.930941 0
M  V30 15 C 6.884737 6.061470 -18.654437 0
M  V30 16 C 8.840290 5.211331 -10.760378 0
M  V30 17 C 6.240001 6.970808 -21.907379 0
M  V30 18 C 5.275546 7.679811 -19.638648 0
M  V30 19 C 5.813053 6.740084 -14.668452 0
M  V30 20 C 9.064265 6.377613 -7.115318 0
M  V30 21 N 6.199931 6.885928 -20.566018 0 CHG=1
M  V30 22 C 5.360887 7.880043 -22.701597 0
M  V30 23 C 10.608556 8.313307 -7.654082 0 CFG=1
M  V30 24 C 7.831976 4.864752 -15.274370 0
M  V30 25 C 7.194619 5.564339 -16.312444 0
M  V30 26 C 5.950956 6.307368 -12.212790 0
M  V30 27 C 7.399119 4.653296 -10.854444 0
M  V30 28 C 6.430940 6.029770 -13.615526 0
M  V30 29 C 7.067453 6.009138 -20.000015 0
M  V30 30 H 8.614076 4.606987 -20.726216 0
M  V30 31 H 8.329007 4.624733 -17.923064 0
M  V30 32 H 11.579322 8.553871 -9.545963 0
M  V30 33 H 11.758056 6.961160 -8.915878 0
M  V30 34 H 4.746138 7.943780 -16.825901 0
M  V30 35 H 10.352213 7.196708 -10.962920 0
M  V30 36 H 9.217194 8.199173 -10.128962 0
M  V30 37 H 10.054819 7.615881 -5.694245 0
M  V30 38 H 11.137732 6.532546 -6.525530 0
M  V30 39 H 12.665511 8.679048 -7.034869 0
M  V30 40 H 11.834827 10.101012 -7.646866 0
M  V30 41 H 11.467952 9.516450 -6.040821 0
M  V30 42 H 8.655201 4.629257 -8.255058 0
M  V30 43 H 10.332148 5.071542 -8.328214 0
M  V30 44 H 5.874970 6.071192 -10.133766 0
M  V30 45 H 7.955847 4.544465 -13.170775 0
M  V30 46 H 9.554435 4.391463 -10.675203 0
M  V30 47 H 9.063418 5.701896 -11.706512 0
M  V30 48 H 4.234895 7.420945 -19.822360 0
M  V30 49 H 5.480740 8.748779 -19.701644 0
M  V30 50 H 5.038667 7.458339 -14.443628 0
M  V30 51 H 8.234837 7.049810 -7.297750 0
M  V30 52 H 8.751187 5.769297 -6.272526 0
M  V30 53 H 4.322408 7.580400 -22.555305 0
M  V30 54 H 5.514508 8.903641 -22.358307 0
M  V30 55 H 9.722406 8.938800 -7.779157 0
M  V30 56 H 8.607412 4.148330 -15.502996 0
M  V30 57 H 5.184275 7.065830 -12.142110 0
M  V30 58 H 7.154287 4.196654 -9.895412 0
M  V30 59 H 7.261981 3.806273 -11.521301 0
M  V30 60 H 5.626938 7.797382 -23.755837 0
M  V30 61 H 8.124353 6.621620 -9.491665 0
M  V30 END ATOM
M  V30 BEGIN BOND
M  V30 1 1 4 1
M  V30 2 2 7 5
M  V30 3 1 7 6
M  V30 4 1 8 3
M  V30 5 1 11 8
M  V30 6 1 12 11
M  V30 7 1 15 2
M  V30 8 2 15 6
M  V30 9 1 16 11
M  V30 10 1 17 4
M  V30 11 1 18 6
M  V30 12 1 19 5
M  V30 13 1 20 9
M  V30 14 1 20 12
M  V30 15 2 21 17
M  V30 16 1 21 18
M  V30 17 1 22 17
M  V30 18 1 23 3
M  V30 19 1 23 9
M  V30 20 1 23 10
M  V30 21 2 24 14
M  V30 22 2 25 2
M  V30 23 1 25 5
M  V30 24 1 25 24
M  V30 25 2 26 13
M  V30 26 1 27 13
M  V30 27 1 27 16
M  V30 28 1 28 14
M  V30 29 2 28 19
M  V30 30 1 28 26
M  V30 31 2 29 1
M  V30 32 1 29 15
M  V30 33 1 29 21
M  V30 34 1 30 1
M  V30 35 1 31 2
M  V30 36 1 32 3
M  V30 37 1 33 3
M  V30 38 1 34 7
M  V30 39 1 35 8
M  V30 40 1 36 8
M  V30 41 1 37 9
M  V30 42 1 38 9
M  V30 43 1 39 10
M  V30 44 1 40 10
M  V30 45 1 41 10
M  V30 46 1 42 12
M  V30 47 1 43 12
M  V30 48 1 44 13
M  V30 49 1 45 14
M  V30 50 1 46 16
M  V30 51 1 47 16
M  V30 52 1 48 18
M  V30 53 1 49 18
M  V30 54 1 50 19
M  V30 55 1 51 20
M  V30 56 1 52 20
M  V30 57 1 53 22
M  V30 58 1 54 22
M  V30 59 1 23 55 CFG=3
M  V30 60 1 56 24
M  V30 61 1 57 26
M  V30 62 1 58 27
M  V30 63 1 59 27
M  V30 64 1 60 22
M  V30 65 1 11 61 CFG=1
M  V30 END BOND
M  V30 END CTAB
M  END
>  <i_epik_Tot_Q>  (1) 
2

>  <i_epik_Tot_abs_Q>  (1) 
2

>  <i_i_glide_confnum>  (1) 
130

>  <i_i_glide_lignum>  (1) 
183

>  <i_i_glide_posenum>  (1) 
306

>  <i_i_glide_rotatable_bonds>  (1) 
4

>  <i_lp_mmshare_version>  (1) 
72125

>  <i_m_source_file_index>  (1) 
91

>  <i_f3d_flags>  (1) 
0

>  <num_sample>  (1) 
100

>  <b_lp_Chiralities_Consistent>  (1) 
1

>  <r_epik_Charging_Adjusted_Penalty>  (1) 
0.0021252633397680827

>  <r_epik_Ionization_Penalty>  (1) 
0.002125263340211697

>  <r_epik_Ionization_Penalty_Charging>  (1) 
0.0021252633397680827

>  <r_epik_Ionization_Penalty_Neutral>  (1) 
4.4361447992621368e-13

>  <r_epik_State_Penalty>  (1) 
-0

>  <r_glide_ring_energy>  (1) 
0.77345274716674883

>  <r_i_docking_score>  (1) 
-6.3252503200008876

>  <r_i_glide_ecoul>  (1) 
-6.1297202421162051

>  <r_i_glide_eff_state_penalty>  (1) 
-0

>  <r_i_glide_einternal>  (1) 
7.2109148078383569

>  <r_i_glide_emodel>  (1) 
-50.688595441807664

>  <r_i_glide_emodel_strain>  (1) 
0.23568150668812393

>  <r_i_glide_energy>  (1) 
-37.869004372061845

>  <r_i_glide_erotb>  (1) 
0.47996519481946287

>  <r_i_glide_esite>  (1) 
-0.096677691000992882

>  <r_i_glide_evdw>  (1) 
-31.739284129945641

>  <r_i_glide_gscore>  (1) 
-6.3252503200008876

>  <r_i_glide_gscore_strain>  (1) 
0

>  <r_i_glide_hbond>  (1) 
-0.20000000000000001

>  <r_i_glide_ligand_efficiency>  (1) 
-0.2181120800000306

>  <r_i_glide_ligand_efficiency_ln>  (1) 
-1.4483219287713049

>  <r_i_glide_ligand_efficiency_sa>  (1) 
-0.67010941326943174

>  <r_i_glide_lipo>  (1) 
-2.3453090734710731

>  <r_i_glide_metal>  (1) 
-0

>  <r_i_glide_rewards>  (1) 
-1.6568065075335703

>  <r_lp_Energy>  (1) 
52.418757999999997

>  <r_lp_tautomer_probability>  (1) 
1

>  <s_epik_cmdline>  (1) 
J2VwaWtfcHl0aG9uJywgJy1waHQnLCAnMS4wJywgJy1waCcsICc3LjQnLCAnLXRuJywgJzgnLCAnLW1hJywgJzUwMCcsICctaW1hZScsICc8aW5maWxlLm1hZT4nLCAnLW9tYWUnLCAnPG91dGZpbGUubWFlPic=

>  <s_epik_input>  (1) 
W0NIMl09QzFTW0NIXT1DMk4xW0NIMl1jKFtjSF0zKWMyW2NIXWMoYzM0KVtjSF1bY0hdYyhbY0hdNCkvW0NIXT1bQ0hdXFtDSDJdW0NIMl1ONVtDSDJdW0NIMl1bQ0BIXShbQ0gzXSlbQ0gyXVtDSDJdW0NIMl01

>  <s_glide_docking_method>  (1) 
confgen

>  <s_i_glide_gridfile>  (1) 
gpcr_drd2_6luq_protein_autoprepared_prepared

>  <s_lp_Force_Field>  (1) 
S-OPLS

>  <s_lp_Variant>  (1) 
DiffSBDD_90_num_sample_100-3

>  <s_m_source_file>  (1) 
generated__ligand_DiffSBDD_2026-05-06_prepared.sdf

>  <GenAI_Model>  (1) 
DiffSBDD

>  <Protein>  (1) 
generic_title2

$$$$
DiffSBDD_88_num_sample_100
     RDKit          3D

  0  0  0  0  0  0  0  0  0  0999 V3000
M  V30 BEGIN CTAB
M  V30 COUNTS 57 61 0 0 1
M  V30 BEGIN ATOM
M  V30 1 S 10.131734 7.171548 -6.310194 0
M  V30 2 O 8.505467 8.480104 -11.491675 0
M  V30 3 C 10.398316 7.495714 -10.445287 0
M  V30 4 O 7.003114 4.816746 -21.241531 0
M  V30 5 F 4.634839 5.289705 -20.114972 0
M  V30 6 C 10.820042 6.897318 -7.966316 0 CFG=1
M  V30 7 C 9.086553 4.952042 -16.433464 0
M  V30 8 C 8.549358 4.149066 -18.327915 0
M  V30 9 C 6.880012 5.789507 -17.312741 0
M  V30 10 C 10.414898 7.920377 -8.999778 0 CFG=1
M  V30 11 C 9.034841 7.236749 -11.091667 0 CFG=2
M  V30 12 C 11.103172 8.654124 -6.052396 0
M  V30 13 N 10.167164 4.921716 -17.136330 0
M  V30 14 C 7.751459 6.260205 -13.171606 0 CFG=1
M  V30 15 O 11.034839 9.334250 -5.031822 0
M  V30 16 N 8.994363 5.325832 -15.089366 0
M  V30 17 C 5.586134 4.841889 -19.293181 0 CFG=2
M  V30 18 C 12.027393 9.012871 -7.195681 0
M  V30 19 C 8.965799 4.745020 -11.530853 0
M  V30 20 C 7.780949 4.560727 -17.102609 0 CFG=2
M  V30 21 C 5.934401 5.910828 -18.271067 0
M  V30 22 C 7.769066 3.448917 -19.419382 0
M  V30 23 C 7.801744 5.149630 -14.256069 0 CFG=1
M  V30 24 O 11.436359 7.369301 -11.091859 0
M  V30 25 C 6.369794 6.295154 -12.477226 0
M  V30 26 C 6.807250 4.410874 -20.096446 0
M  V30 27 C 8.964077 6.143831 -12.188848 0 CFG=2
M  V30 28 C 7.822352 3.755547 -13.592793 0
M  V30 29 C 11.770687 8.021113 -8.305142 0 CFG=1
M  V30 30 N 9.787421 4.374093 -18.405737 0
M  V30 31 C 8.969918 3.627115 -12.574713 0
M  V30 32 H 7.755252 8.606759 -10.914096 0
M  V30 33 H 11.034838 5.866616 -8.239092 0
M  V30 34 H 7.034837 6.613570 -16.631442 0
M  V30 35 H 9.623787 8.606320 -8.700555 0
M  V30 36 H 8.406841 6.863401 -10.291667 0
M  V30 37 H 7.838524 7.212525 -13.696939 0
M  V30 38 H 9.815784 5.612144 -14.576045 0
M  V30 39 H 5.166408 3.975235 -18.783179 0
M  V30 40 H 11.834838 10.024876 -7.540172 0
M  V30 41 H 13.066811 8.969304 -6.874412 0
M  V30 42 H 9.834841 4.630661 -10.884673 0
M  V30 43 H 8.098700 4.629770 -10.879933 0
M  V30 44 H 7.294259 3.713839 -16.618127 0
M  V30 45 H 5.360688 6.825126 -18.327489 0
M  V30 46 H 8.457945 3.041790 -20.159724 0
M  V30 47 H 7.215277 2.612537 -18.993847 0
M  V30 48 H 6.890519 5.231159 -14.842657 0
M  V30 49 H 6.178020 5.405517 -11.879186 0
M  V30 50 H 6.268179 7.152699 -11.813591 0
M  V30 51 H 5.568135 6.373372 -13.212088 0
M  V30 52 H 9.872572 6.233412 -12.784405 0
M  V30 53 H 7.913428 2.976585 -14.350275 0
M  V30 54 H 6.873705 3.567534 -13.090762 0
M  V30 55 H 12.655159 7.769290 -8.887490 0
M  V30 56 H 9.920820 3.675926 -13.091662 0
M  V30 57 H 8.940057 2.652465 -12.088385 0
M  V30 END ATOM
M  V30 BEGIN BOND
M  V30 1 1 6 1
M  V30 2 1 10 3
M  V30 3 1 10 6
M  V30 4 1 11 2
M  V30 5 1 11 3
M  V30 6 1 12 1
M  V30 7 2 13 7
M  V30 8 2 15 12
M  V30 9 1 16 7
M  V30 10 1 17 5
M  V30 11 1 18 12
M  V30 12 1 20 7
M  V30 13 1 20 8
M  V30 14 1 20 9
M  V30 15 2 21 9
M  V30 16 1 21 17
M  V30 17 1 22 8
M  V30 18 1 23 14
M  V30 19 1 23 16
M  V30 20 2 24 3
M  V30 21 1 25 14
M  V30 22 2 26 4
M  V30 23 1 26 17
M  V30 24 1 26 22
M  V30 25 1 27 11
M  V30 26 1 27 14
M  V30 27 1 27 19
M  V30 28 1 28 23
M  V30 29 1 29 6
M  V30 30 1 29 10
M  V30 31 1 29 18
M  V30 32 2 30 8
M  V30 33 1 30 13
M  V30 34 1 31 19
M  V30 35 1 31 28
M  V30 36 1 32 2
M  V30 37 1 6 33 CFG=3
M  V30 38 1 34 9
M  V30 39 1 10 35 CFG=1
M  V30 40 1 11 36 CFG=1
M  V30 41 1 14 37 CFG=3
M  V30 42 1 38 16
M  V30 43 1 17 39 CFG=1
M  V30 44 1 40 18
M  V30 45 1 41 18
M  V30 46 1 42 19
M  V30 47 1 43 19
M  V30 48 1 20 44 CFG=1
M  V30 49 1 45 21
M  V30 50 1 46 22
M  V30 51 1 47 22
M  V30 52 1 23 48 CFG=3
M  V30 53 1 49 25
M  V30 54 1 50 25
M  V30 55 1 51 25
M  V30 56 1 27 52 CFG=3
M  V30 57 1 53 28
M  V30 58 1 54 28
M  V30 59 1 29 55 CFG=3
M  V30 60 1 56 31
M  V30 61 1 57 31
M  V30 END BOND
M  V30 END CTAB
M  END
>  <i_epik_Tot_Q>  (1) 
0

>  <i_epik_Tot_abs_Q>  (1) 
0

>  <i_i_glide_confnum>  (1) 
5

>  <i_i_glide_lignum>  (1) 
178

>  <i_i_glide_posenum>  (1) 
209

>  <i_i_glide_rotatable_bonds>  (1) 
6

>  <i_lp_mmshare_version>  (1) 
72125

>  <i_m_source_file_index>  (1) 
89

>  <i_f3d_flags>  (1) 
0

>  <num_sample>  (1) 
100

>  <b_lp_Chiralities_Consistent>  (1) 
1

>  <r_epik_Charging_Adjusted_Penalty>  (1) 
0

>  <r_epik_Ionization_Penalty>  (1) 
0.0051441323120346551

>  <r_epik_Ionization_Penalty_Charging>  (1) 
0

>  <r_epik_Ionization_Penalty_Neutral>  (1) 
0.0051441323120346551

>  <r_epik_State_Penalty>  (1) 
-0

>  <r_glide_ring_energy>  (1) 
1.1418401425494451

>  <r_i_docking_score>  (1) 
-6.3218607724096048

>  <r_i_glide_ecoul>  (1) 
-7.2606276644037582

>  <r_i_glide_eff_state_penalty>  (1) 
-0

>  <r_i_glide_einternal>  (1) 
18.537495169829832

>  <r_i_glide_emodel>  (1) 
-54.858020407215236

>  <r_i_glide_emodel_strain>  (1) 
3.5708309284381556

>  <r_i_glide_energy>  (1) 
-47.740317257426817

>  <r_i_glide_erotb>  (1) 
0.49992101663368649

>  <r_i_glide_esite>  (1) 
-0.039302793460592206

>  <r_i_glide_evdw>  (1) 
-40.47968959302306

>  <r_i_glide_gscore>  (1) 
-6.3218607724096048

>  <r_i_glide_gscore_strain>  (1) 
0

>  <r_i_glide_hbond>  (1) 
-0.13701069524079121

>  <r_i_glide_ligand_efficiency>  (1) 
-0.20393099265837436

>  <r_i_glide_ligand_efficiency_ln>  (1) 
-1.4257733459435342

>  <r_i_glide_ligand_efficiency_sa>  (1) 
-0.64062487475998853

>  <r_i_glide_lipo>  (1) 
-1.9168969523217652

>  <r_i_glide_metal>  (1) 
-0

>  <r_i_glide_rewards>  (1) 
-1.6154927187084251

>  <r_lp_Energy>  (1) 
20.470316

>  <r_lp_tautomer_probability>  (1) 
1

>  <s_epik_Chemistry_Notes>  (1) 
This compound has an imine and may undergo hydrolysis.

>  <s_epik_cmdline>  (1) 
J2VwaWtfcHl0aG9uJywgJy1waHQnLCAnMS4wJywgJy1waCcsICc3LjQnLCAnLXRuJywgJzgnLCAnLW1hJywgJzUwMCcsICctaW1hZScsICc8aW5maWxlLm1hZT4nLCAnLW9tYWUnLCAnPG91dGZpbGUubWFlPic=

>  <s_epik_input>  (1) 
UzFDKD1PKVtDSDJdW0NAQEhdKFtDQEBIXTEyKVtDQEhdMkMoPU8pW0NAQEhdKFtPSF0pW0NASF0zW0NIMl1bQ0gyXVtDSDJdW0NAQEhdKFtDQEhdM1tDSDNdKVtOSF1DKD1OTjQpW0NASF0oQz00NSlbQ0hdPVtDSF1bQ0BASF0oRilDKD1PKVtDSDJdNQ==

>  <s_glide_docking_method>  (1) 
confgen

>  <s_i_glide_gridfile>  (1) 
gpcr_drd2_6luq_protein_autoprepared_prepared

>  <s_lp_Force_Field>  (1) 
S-OPLS

>  <s_lp_Variant>  (1) 
DiffSBDD_88_num_sample_100-1

>  <s_m_source_file>  (1) 
generated__ligand_DiffSBDD_2026-05-06_prepared.sdf

>  <GenAI_Model>  (1) 
DiffSBDD

>  <Protein>  (1) 
generic_title2

$$$$
DiffSBDD_37_num_sample_100
     RDKit          3D

  0  0  0  0  0  0  0  0  0  0999 V3000
M  V30 BEGIN CTAB
M  V30 COUNTS 41 43 0 0 1
M  V30 BEGIN ATOM
M  V30 1 C 10.524805 6.569301 -6.119332 0
M  V30 2 O 10.609602 8.169302 -10.691666 0
M  V30 3 C 11.434832 8.755276 -6.545928 0
M  V30 4 C 10.249673 6.410541 -7.496990 0
M  V30 5 C 5.790382 4.150937 -12.826087 0 CFG=1
M  V30 6 O 5.240363 5.772166 -11.091667 0
M  V30 7 C 9.612981 5.770634 -11.540327 0
M  V30 8 C 6.343997 2.732889 -13.091665 0
M  V30 9 O 11.434839 7.949697 -4.353817 0
M  V30 10 C 7.936924 5.407779 -13.375093 0
M  V30 11 O 9.800140 6.130151 -10.175954 0
M  V30 12 C 10.589342 7.450178 -8.405470 0
M  V30 13 S 12.141504 10.156559 -5.891667 0
M  V30 14 C 7.397643 4.778361 -10.957433 0
M  V30 15 C 5.932046 4.566265 -11.343024 0 CFG=2
M  V30 16 C 11.184678 8.629959 -7.918172 0
M  V30 17 C 8.126718 5.766879 -11.887226 0 CFG=1
M  V30 18 C 11.125392 7.752562 -5.667209 0
M  V30 19 C 6.460330 5.193145 -13.742754 0
M  V30 20 C 10.335814 7.309217 -9.864186 0
M  V30 21 C 12.016560 9.278472 -4.266687 0
M  V30 22 H 10.280611 5.783251 -5.420869 0
M  V30 23 H 9.791057 5.498982 -7.851925 0
M  V30 24 H 4.727280 4.126596 -13.069986 0
M  V30 25 H 5.703144 6.258194 -10.417031 0
M  V30 26 H 10.023589 4.770387 -11.682018 0
M  V30 27 H 10.161332 6.416976 -12.227126 0
M  V30 28 H 7.404333 2.649755 -12.857556 0
M  V30 29 H 5.834840 1.980096 -12.492418 0
M  V30 30 H 6.234839 2.453004 -14.139140 0
M  V30 31 H 8.352704 6.196327 -14.000972 0
M  V30 32 H 8.507972 4.510588 -13.615100 0
M  V30 33 H 7.451669 5.117006 -9.921171 0
M  V30 34 H 7.923523 3.825318 -10.983723 0
M  V30 35 H 5.496362 3.802583 -10.696720 0
M  V30 36 H 11.446448 9.430472 -8.594856 0
M  V30 37 H 7.723207 6.767308 -11.720160 0
M  V30 38 H 5.929179 6.142681 -13.664622 0
M  V30 39 H 6.375990 4.887295 -14.786021 0
M  V30 40 H 13.013272 9.201589 -3.831000 0
M  V30 41 H 11.416175 9.881252 -3.584764 0
M  V30 END ATOM
M  V30 BEGIN BOND
M  V30 1 2 4 1
M  V30 2 1 8 5
M  V30 3 1 11 7
M  V30 4 1 12 4
M  V30 5 1 13 3
M  V30 6 1 15 5
M  V30 7 1 15 6
M  V30 8 1 15 14
M  V30 9 1 16 3
M  V30 10 2 16 12
M  V30 11 1 17 7
M  V30 12 1 17 10
M  V30 13 1 17 14
M  V30 14 1 18 1
M  V30 15 2 18 3
M  V30 16 1 18 9
M  V30 17 1 19 5
M  V30 18 1 19 10
M  V30 19 2 20 2
M  V30 20 1 20 11
M  V30 21 1 20 12
M  V30 22 1 21 9
M  V30 23 1 21 13
M  V30 24 1 22 1
M  V30 25 1 23 4
M  V30 26 1 5 24 CFG=3
M  V30 27 1 25 6
M  V30 28 1 26 7
M  V30 29 1 27 7
M  V30 30 1 28 8
M  V30 31 1 29 8
M  V30 32 1 30 8
M  V30 33 1 31 10
M  V30 34 1 32 10
M  V30 35 1 33 14
M  V30 36 1 34 14
M  V30 37 1 15 35 CFG=1
M  V30 38 1 36 16
M  V30 39 1 17 37 CFG=3
M  V30 40 1 38 19
M  V30 41 1 39 19
M  V30 42 1 40 21
M  V30 43 1 41 21
M  V30 END BOND
M  V30 END CTAB
M  END
>  <i_epik_Tot_Q>  (1) 
0

>  <i_epik_Tot_abs_Q>  (1) 
0

>  <i_i_glide_confnum>  (1) 
1

>  <i_i_glide_lignum>  (1) 
67

>  <i_i_glide_posenum>  (1) 
169

>  <i_i_glide_rotatable_bonds>  (1) 
5

>  <i_lp_mmshare_version>  (1) 
72125

>  <i_m_source_file_index>  (1) 
38

>  <i_f3d_flags>  (1) 
0

>  <num_sample>  (1) 
100

>  <b_lp_Chiralities_Consistent>  (1) 
1

>  <r_epik_Charging_Adjusted_Penalty>  (1) 
0

>  <r_epik_Ionization_Penalty>  (1) 
3.9594371976728403e-07

>  <r_epik_Ionization_Penalty_Charging>  (1) 
0

>  <r_epik_Ionization_Penalty_Neutral>  (1) 
3.9594371976728403e-07

>  <r_epik_State_Penalty>  (1) 
-0

>  <r_glide_ring_energy>  (1) 
0

>  <r_i_docking_score>  (1) 
-6.278944988367166

>  <r_i_glide_ecoul>  (1) 
-3.3079249193786828

>  <r_i_glide_eff_state_penalty>  (1) 
-0

>  <r_i_glide_einternal>  (1) 
1.6667439639086914

>  <r_i_glide_emodel>  (1) 
-50.665995083419332

>  <r_i_glide_emodel_strain>  (1) 
0.80389853111566367

>  <r_i_glide_energy>  (1) 
-37.997730736156278

>  <r_i_glide_erotb>  (1) 
0.58356430474883259

>  <r_i_glide_esite>  (1) 
-0.049775856845077508

>  <r_i_glide_evdw>  (1) 
-34.689805816777593

>  <r_i_glide_gscore>  (1) 
-6.278944988367166

>  <r_i_glide_gscore_strain>  (1) 
0

>  <r_i_glide_hbond>  (1) 
-0.095747794464869113

>  <r_i_glide_ligand_efficiency>  (1) 
-0.29899738039843649

>  <r_i_glide_ligand_efficiency_ln>  (1) 
-1.5524564605707698

>  <r_i_glide_ligand_efficiency_sa>  (1) 
-0.8249111014558691

>  <r_i_glide_lipo>  (1) 
-2.2907794802345829

>  <r_i_glide_metal>  (1) 
-0

>  <r_i_glide_rewards>  (1) 
-2.1955271328257875

>  <r_lp_Energy>  (1) 
12.800905

>  <r_lp_tautomer_probability>  (1) 
1

>  <s_epik_Chemistry_Notes>  (1) 
This compound has an ester and may undergo hydrolysis at high or low pH. This compound contains an acetal/aminal-like group ( X-CH(R)-Y where X, Y are N, S, or O) that may be acid/base labile, releasing an aldehyde.

>  <s_epik_cmdline>  (1) 
J2VwaWtfcHl0aG9uJywgJy1waHQnLCAnMS4wJywgJy1waCcsICc3LjQnLCAnLXRuJywgJzgnLCAnLW1hJywgJzUwMCcsICctaW1hZScsICc8aW5maWxlLm1hZT4nLCAnLW9tYWUnLCAnPG91dGZpbGUubWFlPic=

>  <s_epik_input>  (1) 
UzFbQ0gyXU9jKGMxMilbY0hdW2NIXWMoW2NIXTIpQyg9TylPW0NIMl1bQ0BASF0oW0NIMl1bQ0gyXTMpW0NIMl1bQ0BASF0oW09IXSlbQ0BASF0zW0NIM10=

>  <s_glide_docking_method>  (1) 
confgen

>  <s_i_glide_gridfile>  (1) 
gpcr_drd2_6luq_protein_autoprepared_prepared

>  <s_lp_Force_Field>  (1) 
S-OPLS

>  <s_lp_Variant>  (1) 
DiffSBDD_37_num_sample_100-1

>  <s_m_source_file>  (1) 
generated__ligand_DiffSBDD_2026-05-06_prepared.sdf

>  <GenAI_Model>  (1) 
DiffSBDD

>  <Protein>  (1) 
generic_title2

$$$$
DiffSBDD_27_num_sample_100
     RDKit          3D

  0  0  0  0  0  0  0  0  0  0999 V3000
M  V30 BEGIN CTAB
M  V30 COUNTS 57 57 0 0 1
M  V30 BEGIN ATOM
M  V30 1 C 7.297353 4.480677 -18.959280 0 CFG=2
M  V30 2 C 7.316744 6.111933 -12.424835 0
M  V30 3 N 7.035452 3.205877 -18.290850 0
M  V30 4 C 11.007001 6.491047 -6.659919 0
M  V30 5 C 5.986899 5.312165 -20.754718 0
M  V30 6 C 6.461108 6.440527 -14.775632 0
M  V30 7 N 6.550097 5.369270 -10.291947 0 CHG=1
M  V30 8 C 9.247297 5.415067 -9.090300 0
M  V30 9 C 10.199486 7.329572 -7.669652 0
M  V30 10 C 11.102680 7.802644 -8.827192 0
M  V30 11 C 7.694012 5.284210 -11.210397 0 CFG=2
M  V30 12 C 8.996701 5.820800 -10.564037 0
M  V30 13 C 6.327745 5.622387 -18.477256 0
M  V30 14 C 8.100984 5.159225 -16.114495 0
M  V30 15 C 7.033985 4.361980 -20.514846 0
M  V30 16 O 7.572354 3.603431 -21.317724 0
M  V30 17 C 6.106990 6.213603 -17.265717 0
M  V30 18 N 9.034839 6.554000 -8.160526 0 CHG=1
M  V30 19 N 6.850662 5.919433 -16.092589 0
M  V30 20 C 5.628120 5.959586 -19.680362 0
M  V30 21 C 5.025467 7.287214 -17.087792 0
M  V30 22 C 9.639270 8.565889 -6.945119 0
M  V30 23 C 6.845403 5.597919 -13.571795 0
M  V30 24 H 8.336166 4.770966 -18.816424 0
M  V30 25 H 7.440156 7.182957 -12.335549 0
M  V30 26 H 6.089742 2.892167 -18.456197 0
M  V30 27 H 7.637451 2.477932 -18.651021 0
M  V30 28 H 10.389830 6.169913 -5.819338 0
M  V30 29 H 11.434633 5.596962 -7.110917 0
M  V30 30 H 11.834332 7.068339 -6.248417 0
M  V30 31 H 5.556080 5.453092 -21.734689 0
M  V30 32 H 6.850660 7.453338 -14.658822 0
M  V30 33 H 5.375191 6.502724 -14.718842 0
M  V30 34 H 5.692337 5.211058 -10.800291 0
M  V30 35 H 6.602932 4.705256 -9.532410 0
M  V30 36 H 8.572903 4.610661 -8.799226 0
M  V30 37 H 10.234840 4.989524 -8.962365 0
M  V30 38 H 10.552317 8.412658 -9.544362 0
M  V30 39 H 11.926615 8.412008 -8.453921 0
M  V30 40 H 11.548279 6.969835 -9.369436 0
M  V30 41 H 7.815704 4.238029 -11.496546 0
M  V30 42 H 9.833685 5.477751 -11.173562 0
M  V30 43 H 9.025624 6.909072 -10.644636 0
M  V30 44 H 7.918463 4.086191 -16.102057 0
M  V30 45 H 8.714471 5.427996 -16.970302 0
M  V30 46 H 8.725258 5.389291 -15.251258 0
M  V30 47 H 8.389768 7.200005 -8.616563 0
M  V30 48 H 4.848114 6.704300 -19.703343 0
M  V30 49 H 4.974268 7.935943 -17.960662 0
M  V30 50 H 4.049623 6.820681 -16.955441 0
M  V30 51 H 5.198223 7.980758 -16.266477 0
M  V30 52 H 8.999695 8.282297 -6.108267 0
M  V30 53 H 10.436993 9.195199 -6.548934 0
M  V30 54 H 9.035135 9.179042 -7.615581 0
M  V30 55 H 6.717055 4.528814 -13.667999 0
M  V30 56 H 8.543756 6.215886 -7.344006 0
M  V30 57 H 6.535056 6.323228 -9.911383 0
M  V30 END ATOM
M  V30 BEGIN BOND
M  V30 1 1 3 1
M  V30 2 1 9 4
M  V30 3 1 10 9
M  V30 4 1 11 2
M  V30 5 1 11 7
M  V30 6 1 12 8
M  V30 7 1 12 11
M  V30 8 1 13 1
M  V30 9 1 15 1
M  V30 10 1 15 5
M  V30 11 2 16 15
M  V30 12 2 17 13
M  V30 13 1 18 8
M  V30 14 1 18 9
M  V30 15 1 19 6
M  V30 16 1 19 14
M  V30 17 1 19 17
M  V30 18 2 20 5
M  V30 19 1 20 13
M  V30 20 1 21 17
M  V30 21 1 22 9
M  V30 22 2 23 2
M  V30 23 1 23 6
M  V30 24 1 1 24 CFG=3
M  V30 25 1 25 2
M  V30 26 1 26 3
M  V30 27 1 27 3
M  V30 28 1 28 4
M  V30 29 1 29 4
M  V30 30 1 30 4
M  V30 31 1 31 5
M  V30 32 1 32 6
M  V30 33 1 33 6
M  V30 34 1 34 7
M  V30 35 1 35 7
M  V30 36 1 36 8
M  V30 37 1 37 8
M  V30 38 1 38 10
M  V30 39 1 39 10
M  V30 40 1 40 10
M  V30 41 1 11 41 CFG=3
M  V30 42 1 42 12
M  V30 43 1 43 12
M  V30 44 1 44 14
M  V30 45 1 45 14
M  V30 46 1 46 14
M  V30 47 1 47 18
M  V30 48 1 48 20
M  V30 49 1 49 21
M  V30 50 1 50 21
M  V30 51 1 51 21
M  V30 52 1 52 22
M  V30 53 1 53 22
M  V30 54 1 54 22
M  V30 55 1 55 23
M  V30 56 1 56 18
M  V30 57 1 57 7
M  V30 END BOND
M  V30 END CTAB
M  END
>  <i_epik_Tot_Q>  (1) 
2

>  <i_epik_Tot_abs_Q>  (1) 
2

>  <i_i_glide_confnum>  (1) 
210

>  <i_i_glide_lignum>  (1) 
45

>  <i_i_glide_posenum>  (1) 
207

>  <i_i_glide_rotatable_bonds>  (1) 
8

>  <i_lp_mmshare_version>  (1) 
72125

>  <i_m_source_file_index>  (1) 
28

>  <i_f3d_flags>  (1) 
0

>  <num_sample>  (1) 
100

>  <b_lp_Chiralities_Consistent>  (1) 
1

>  <r_epik_Charging_Adjusted_Penalty>  (1) 
0.47954930221194114

>  <r_epik_Ionization_Penalty>  (1) 
0.082650424812652987

>  <r_epik_Ionization_Penalty_Charging>  (1) 
0.068869463259337155

>  <r_epik_Ionization_Penalty_Neutral>  (1) 
0.013780961553315832

>  <r_epik_State_Penalty>  (1) 
0.41067983895260396

>  <r_glide_ring_energy>  (1) 
0

>  <r_i_docking_score>  (1) 
-6.2733210697675217

>  <r_i_glide_ecoul>  (1) 
-11.439667459089289

>  <r_i_glide_eff_state_penalty>  (1) 
0.41067983895260396

>  <r_i_glide_einternal>  (1) 
15.160592666448052

>  <r_i_glide_emodel>  (1) 
-51.894429023517205

>  <r_i_glide_emodel_strain>  (1) 
2.1500250423589904

>  <r_i_glide_energy>  (1) 
-35.541911092326984

>  <r_i_glide_erotb>  (1) 
0.88107071462136088

>  <r_i_glide_esite>  (1) 
-0.19031800378116054

>  <r_i_glide_evdw>  (1) 
-24.102243633237695

>  <r_i_glide_gscore>  (1) 
-6.684000908720126

>  <r_i_glide_gscore_strain>  (1) 
0

>  <r_i_glide_hbond>  (1) 
-0.40000000000000002

>  <r_i_glide_ligand_efficiency>  (1) 
-0.27275308998989223

>  <r_i_glide_ligand_efficiency_ln>  (1) 
-1.5169459180002871

>  <r_i_glide_ligand_efficiency_sa>  (1) 
-0.77567350627473719

>  <r_i_glide_lipo>  (1) 
-1.523907422451543

>  <r_i_glide_metal>  (1) 
-0

>  <r_i_glide_rewards>  (1) 
-2.5297838965835044

>  <r_lp_Energy>  (1) 
26.442719

>  <r_lp_tautomer_probability>  (1) 
0.5

>  <s_epik_cmdline>  (1) 
J2VwaWtfcHl0aG9uJywgJy1waHQnLCAnMS4wJywgJy1waCcsICc3LjQnLCAnLXRuJywgJzgnLCAnLW1hJywgJzUwMCcsICctaW1hZScsICc8aW5maWxlLm1hZT4nLCAnLW9tYWUnLCAnPG91dGZpbGUubWFlPic=

>  <s_epik_input>  (1) 
Tz1DMVtDSF09W0NIXUMoXFtDQEhdMVtOSDJdKT1DKFtDSDNdKVxOKFtDSDNdKVtDSDJdXFtDSF09W0NIXVxbQ0BIXShbTkgyXSlbQ0gyXVtDSDJdW05IXUMoW0NIM10pKFtDSDNdKVtDSDNd

>  <s_glide_docking_method>  (1) 
confgen

>  <s_i_glide_gridfile>  (1) 
gpcr_drd2_6luq_protein_autoprepared_prepared

>  <s_lp_Force_Field>  (1) 
S-OPLS

>  <s_lp_Variant>  (1) 
DiffSBDD_27_num_sample_100-3

>  <s_m_source_file>  (1) 
generated__ligand_DiffSBDD_2026-05-06_prepared.sdf

>  <GenAI_Model>  (1) 
DiffSBDD

>  <Protein>  (1) 
generic_title2

$$$$
DiffSBDD_90_num_sample_100
     RDKit          3D

  0  0  0  0  0  0  0  0  0  0999 V3000
M  V30 BEGIN CTAB
M  V30 COUNTS 61 65 0 0 1
M  V30 BEGIN ATOM
M  V30 1 C 8.359255 5.523436 -20.345365 0
M  V30 2 C 8.200009 5.369302 -17.105382 0
M  V30 3 C 11.274200 8.721186 -8.161227 0
M  V30 4 S 7.734760 5.828463 -21.943500 0
M  V30 5 C 6.495238 5.816541 -15.384117 0
M  V30 6 C 5.977639 6.117397 -17.736048 0
M  V30 7 C 5.562852 6.169308 -16.399529 0
M  V30 8 C 9.908831 8.443881 -8.837743 0
M  V30 9 C 10.950223 7.659492 -5.866188 0
M  V30 10 C 12.382589 9.734678 -6.074077 0
M  V30 11 N 9.434839 7.030101 -8.830490 0 CFG=2 CHG=1
M  V30 12 C 9.808614 6.209409 -7.640717 0
M  V30 13 C 7.255149 5.369303 -10.425405 0
M  V30 14 C 8.368583 5.168430 -13.376501 0
M  V30 15 C 7.247373 5.729834 -18.062948 0
M  V30 16 C 9.584629 6.336087 -10.144273 0
M  V30 17 C 6.173599 6.281242 -21.282263 0
M  V30 18 C 5.063802 6.486266 -18.977714 0
M  V30 19 C 6.114146 5.855429 -14.030341 0
M  V30 20 C 9.672567 6.928755 -6.291664 0
M  V30 21 N 6.214386 6.180985 -19.941745 0 CHG=1
M  V30 22 C 4.962018 6.715693 -22.039529 0
M  V30 23 C 11.172120 8.965903 -6.635860 0 CFG=1
M  V30 24 C 8.744908 5.105472 -14.733754 0
M  V30 25 C 7.821110 5.423524 -15.738912 0
M  V30 26 C 6.552960 5.579401 -11.577604 0
M  V30 27 C 8.731596 5.043604 -10.286270 0
M  V30 28 C 7.038575 5.529133 -13.007656 0
M  V30 29 C 7.394136 5.769488 -19.412834 0
M  V30 30 H 9.376947 5.190805 -20.201146 0
M  V30 31 H 9.198002 5.074109 -17.395649 0
M  V30 32 H 11.679115 9.624930 -8.618104 0
M  V30 33 H 11.997488 7.937876 -8.392212 0
M  V30 34 H 4.558468 6.472311 -16.146700 0
M  V30 35 H 9.935407 8.817364 -9.861429 0
M  V30 36 H 9.130492 9.032558 -8.352385 0
M  V30 37 H 10.880012 7.883176 -4.801282 0
M  V30 38 H 11.811682 6.999220 -5.973996 0
M  V30 39 H 13.325147 9.369297 -6.481763 0
M  V30 40 H 12.309462 10.800028 -6.291680 0
M  V30 41 H 12.437358 9.654252 -4.987800 0
M  V30 42 H 9.130211 5.364198 -7.564350 0
M  V30 43 H 10.808524 5.790576 -7.762596 0
M  V30 44 H 6.719538 5.446549 -9.491672 0
M  V30 45 H 9.095703 4.936437 -12.649247 0
M  V30 46 H 10.634836 6.169303 -10.322960 0
M  V30 47 H 9.274215 7.013013 -10.942026 0
M  V30 48 H 4.234842 5.798780 -19.141014 0
M  V30 49 H 4.783102 7.538976 -19.027823 0
M  V30 50 H 5.105783 6.141332 -13.767608 0
M  V30 51 H 8.805195 7.591226 -6.291537 0
M  V30 52 H 9.467338 6.173615 -5.531334 0
M  V30 53 H 4.163056 5.994563 -21.866438 0
M  V30 54 H 4.663142 7.705185 -21.692233 0
M  V30 55 H 10.304572 9.595622 -6.439619 0
M  V30 56 H 9.753254 4.819924 -14.997790 0
M  V30 57 H 5.503748 5.814735 -11.467877 0
M  V30 58 H 8.783410 4.486313 -9.360657 0
M  V30 59 H 9.122444 4.253484 -10.914631 0
M  V30 60 H 5.206891 6.752459 -23.101321 0
M  V30 61 H 8.422093 7.159873 -8.780007 0
M  V30 END ATOM
M  V30 BEGIN BOND
M  V30 1 1 4 1
M  V30 2 2 7 5
M  V30 3 1 7 6
M  V30 4 1 8 3
M  V30 5 1 11 8
M  V30 6 1 12 11
M  V30 7 1 15 2
M  V30 8 2 15 6
M  V30 9 1 16 11
M  V30 10 1 17 4
M  V30 11 1 18 6
M  V30 12 1 19 5
M  V30 13 1 20 9
M  V30 14 1 20 12
M  V30 15 2 21 17
M  V30 16 1 21 18
M  V30 17 1 22 17
M  V30 18 1 23 3
M  V30 19 1 23 9
M  V30 20 1 23 10
M  V30 21 2 24 14
M  V30 22 2 25 2
M  V30 23 1 25 5
M  V30 24 1 25 24
M  V30 25 2 26 13
M  V30 26 1 27 13
M  V30 27 1 27 16
M  V30 28 1 28 14
M  V30 29 2 28 19
M  V30 30 1 28 26
M  V30 31 2 29 1
M  V30 32 1 29 15
M  V30 33 1 29 21
M  V30 34 1 30 1
M  V30 35 1 31 2
M  V30 36 1 32 3
M  V30 37 1 33 3
M  V30 38 1 34 7
M  V30 39 1 35 8
M  V30 40 1 36 8
M  V30 41 1 37 9
M  V30 42 1 38 9
M  V30 43 1 39 10
M  V30 44 1 40 10
M  V30 45 1 41 10
M  V30 46 1 42 12
M  V30 47 1 43 12
M  V30 48 1 44 13
M  V30 49 1 45 14
M  V30 50 1 46 16
M  V30 51 1 47 16
M  V30 52 1 48 18
M  V30 53 1 49 18
M  V30 54 1 50 19
M  V30 55 1 51 20
M  V30 56 1 52 20
M  V30 57 1 53 22
M  V30 58 1 54 22
M  V30 59 1 23 55 CFG=3
M  V30 60 1 56 24
M  V30 61 1 57 26
M  V30 62 1 58 27
M  V30 63 1 59 27
M  V30 64 1 60 22
M  V30 65 1 11 61 CFG=1
M  V30 END BOND
M  V30 END CTAB
M  END
>  <i_epik_Tot_Q>  (1) 
2

>  <i_epik_Tot_abs_Q>  (1) 
2

>  <i_i_glide_confnum>  (1) 
177

>  <i_i_glide_lignum>  (1) 
183

>  <i_i_glide_posenum>  (1) 
342

>  <i_i_glide_rotatable_bonds>  (1) 
4

>  <i_lp_mmshare_version>  (1) 
72125

>  <i_m_source_file_index>  (1) 
91

>  <i_f3d_flags>  (1) 
0

>  <num_sample>  (1) 
100

>  <b_lp_Chiralities_Consistent>  (1) 
1

>  <r_epik_Charging_Adjusted_Penalty>  (1) 
0.0021252633397680827

>  <r_epik_Ionization_Penalty>  (1) 
0.002125263340211697

>  <r_epik_Ionization_Penalty_Charging>  (1) 
0.0021252633397680827

>  <r_epik_Ionization_Penalty_Neutral>  (1) 
4.4361447992621368e-13

>  <r_epik_State_Penalty>  (1) 
-0

>  <r_glide_ring_energy>  (1) 
0.80691706308613009

>  <r_i_docking_score>  (1) 
-6.2727928773098167

>  <r_i_glide_ecoul>  (1) 
-4.5269324321153182

>  <r_i_glide_eff_state_penalty>  (1) 
-0

>  <r_i_glide_einternal>  (1) 
2.2483849073249385

>  <r_i_glide_emodel>  (1) 
-50.889453062148597

>  <r_i_glide_emodel_strain>  (1) 
1.0602811430748318

>  <r_i_glide_energy>  (1) 
-36.551369753734583

>  <r_i_glide_erotb>  (1) 
0.47996519481946287

>  <r_i_glide_esite>  (1) 
-0.10000000000000001

>  <r_i_glide_evdw>  (1) 
-32.024437321619267

>  <r_i_glide_gscore>  (1) 
-6.2727928773098167

>  <r_i_glide_gscore_strain>  (1) 
0

>  <r_i_glide_hbond>  (1) 
-0.20000000000000001

>  <r_i_glide_ligand_efficiency>  (1) 
-0.21630320266585576

>  <r_i_glide_ligand_efficiency_ln>  (1) 
-1.4363105046010229

>  <r_i_glide_ligand_efficiency_sa>  (1) 
-0.66455196900004454

>  <r_i_glide_lipo>  (1) 
-2.5189856622787876

>  <r_i_glide_metal>  (1) 
-0

>  <r_i_glide_rewards>  (1) 
-1.6535106789522296

>  <r_lp_Energy>  (1) 
52.418757999999997

>  <r_lp_tautomer_probability>  (1) 
1

>  <s_epik_cmdline>  (1) 
J2VwaWtfcHl0aG9uJywgJy1waHQnLCAnMS4wJywgJy1waCcsICc3LjQnLCAnLXRuJywgJzgnLCAnLW1hJywgJzUwMCcsICctaW1hZScsICc8aW5maWxlLm1hZT4nLCAnLW9tYWUnLCAnPG91dGZpbGUubWFlPic=

>  <s_epik_input>  (1) 
W0NIMl09QzFTW0NIXT1DMk4xW0NIMl1jKFtjSF0zKWMyW2NIXWMoYzM0KVtjSF1bY0hdYyhbY0hdNCkvW0NIXT1bQ0hdXFtDSDJdW0NIMl1ONVtDSDJdW0NIMl1bQ0BIXShbQ0gzXSlbQ0gyXVtDSDJdW0NIMl01

>  <s_glide_docking_method>  (1) 
confgen

>  <s_i_glide_gridfile>  (1) 
gpcr_drd2_6luq_protein_autoprepared_prepared

>  <s_lp_Force_Field>  (1) 
S-OPLS

>  <s_lp_Variant>  (1) 
DiffSBDD_90_num_sample_100-3

>  <s_m_source_file>  (1) 
generated__ligand_DiffSBDD_2026-05-06_prepared.sdf

>  <GenAI_Model>  (1) 
DiffSBDD

>  <Protein>  (1) 
generic_title2

$$$$
DiffSBDD_83_num_sample_100
     RDKit          3D

  0  0  0  0  0  0  0  0  0  0999 V3000
M  V30 BEGIN CTAB
M  V30 COUNTS 49 53 0 0 1
M  V30 BEGIN ATOM
M  V30 1 C 9.678475 6.876487 -10.847000 0
M  V30 2 C 6.902897 6.310178 -18.503377 0
M  V30 3 C 5.313211 6.387590 -16.645121 0 CFG=1
M  V30 4 C 5.862224 5.712551 -13.603422 0
M  V30 5 C 6.599452 6.489009 -15.867499 0 CFG=2
M  V30 6 N 6.815091 5.578843 -11.091667 0 CHG=1
M  V30 7 C 4.894176 7.429047 -17.650649 0
M  V30 8 C 10.716846 7.805266 -8.849094 0
M  V30 9 C 6.564645 5.709106 -17.158954 0 CFG=2
M  V30 10 C 6.773009 5.807564 -14.560896 0
M  V30 11 C 11.613657 8.839470 -8.204027 0
M  V30 12 C 8.107642 4.897474 -10.709186 0 CFG=1
M  V30 13 C 9.242845 5.870928 -8.663644 0
M  V30 14 C 7.915869 5.210421 -14.107121 0
M  V30 15 C 10.517569 7.823549 -10.241034 0
M  V30 16 C 5.653001 7.089743 -18.939916 0
M  V30 17 C 8.714777 4.181583 -11.968471 0
M  V30 18 C 10.082557 6.824767 -8.058864 0
M  V30 19 C 7.706258 4.736406 -12.890763 0
M  V30 20 C 13.034843 8.313915 -8.018728 0
M  V30 21 O 13.696571 8.169302 -9.260799 0
M  V30 22 C 6.300005 4.927340 -12.307855 0 CFG=2
M  V30 23 C 9.034882 5.899482 -10.060301 0
M  V30 24 H 9.522017 6.902511 -11.915658 0
M  V30 25 H 7.763872 6.969300 -18.394041 0
M  V30 26 H 7.164365 5.531925 -19.220817 0
M  V30 27 H 4.516910 5.769301 -16.248004 0
M  V30 28 H 4.868498 6.117915 -13.686818 0
M  V30 29 H 7.034825 7.482646 -15.857046 0
M  V30 30 H 6.160405 5.557763 -10.321495 0
M  V30 31 H 5.189595 8.408841 -17.275775 0
M  V30 32 H 3.812906 7.426916 -17.794778 0
M  V30 33 H 6.634836 4.625122 -17.089231 0
M  V30 34 H 11.191996 9.106966 -7.234355 0
M  V30 35 H 11.619210 9.751883 -8.801900 0
M  V30 36 H 7.839179 4.169300 -9.952992 0
M  V30 37 H 8.749971 5.125908 -8.056294 0
M  V30 38 H 8.862787 5.197991 -14.628202 0
M  V30 39 H 11.005957 8.569300 -10.841716 0
M  V30 40 H 5.890288 7.974705 -19.531066 0
M  V30 41 H 5.028695 6.444474 -19.559600 0
M  V30 42 H 9.736735 4.467360 -12.222441 0
M  V30 43 H 8.634821 3.096052 -11.908618 0
M  V30 44 H 10.235987 6.807416 -6.989699 0
M  V30 45 H 13.006024 7.365291 -7.491679 0
M  V30 46 H 13.611001 9.000813 -7.400833 0
M  V30 47 H 13.900098 9.042996 -9.583118 0
M  V30 48 H 5.797393 3.973139 -12.144008 0
M  V30 49 H 7.034829 6.550201 -11.273904 0
M  V30 END ATOM
M  V30 BEGIN BOND
M  V30 1 1 5 3
M  V30 2 1 7 3
M  V30 3 1 9 2
M  V30 4 1 9 3
M  V30 5 1 9 5
M  V30 6 2 10 4
M  V30 7 1 10 5
M  V30 8 1 11 8
M  V30 9 1 12 6
M  V30 10 1 14 10
M  V30 11 2 15 1
M  V30 12 1 15 8
M  V30 13 1 16 2
M  V30 14 1 16 7
M  V30 15 1 17 12
M  V30 16 2 18 8
M  V30 17 1 18 13
M  V30 18 2 19 14
M  V30 19 1 19 17
M  V30 20 1 20 11
M  V30 21 1 21 20
M  V30 22 1 22 4
M  V30 23 1 22 6
M  V30 24 1 22 19
M  V30 25 1 23 1
M  V30 26 1 23 12
M  V30 27 2 23 13
M  V30 28 1 24 1
M  V30 29 1 25 2
M  V30 30 1 26 2
M  V30 31 1 3 27 CFG=1
M  V30 32 1 28 4
M  V30 33 1 5 29 CFG=3
M  V30 34 1 30 6
M  V30 35 1 31 7
M  V30 36 1 32 7
M  V30 37 1 9 33 CFG=1
M  V30 38 1 34 11
M  V30 39 1 35 11
M  V30 40 1 12 36 CFG=1
M  V30 41 1 37 13
M  V30 42 1 38 14
M  V30 43 1 39 15
M  V30 44 1 40 16
M  V30 45 1 41 16
M  V30 46 1 42 17
M  V30 47 1 43 17
M  V30 48 1 44 18
M  V30 49 1 45 20
M  V30 50 1 46 20
M  V30 51 1 47 21
M  V30 52 1 22 48 CFG=1
M  V30 53 1 49 6
M  V30 END BOND
M  V30 END CTAB
M  END
>  <i_epik_Tot_Q>  (1) 
1

>  <i_epik_Tot_abs_Q>  (1) 
1

>  <i_i_glide_confnum>  (1) 
167

>  <i_i_glide_lignum>  (1) 
169

>  <i_i_glide_posenum>  (1) 
85

>  <i_i_glide_rotatable_bonds>  (1) 
5

>  <i_lp_mmshare_version>  (1) 
72125

>  <i_m_source_file_index>  (1) 
84

>  <i_f3d_flags>  (1) 
0

>  <num_sample>  (1) 
100

>  <b_lp_Chiralities_Consistent>  (1) 
1

>  <r_epik_Charging_Adjusted_Penalty>  (1) 
0.3591125196210796

>  <r_epik_Ionization_Penalty>  (1) 
0.17955633890062345

>  <r_epik_Ionization_Penalty_Charging>  (1) 
0.1795562598105398

>  <r_epik_Ionization_Penalty_Neutral>  (1) 
7.9090083639956194e-08

>  <r_epik_State_Penalty>  (1) 
0.1795562598105398

>  <r_glide_ring_energy>  (1) 
1.4396960314071907

>  <r_i_docking_score>  (1) 
-6.2720070231992739

>  <r_i_glide_ecoul>  (1) 
-7.0958290985289292

>  <r_i_glide_eff_state_penalty>  (1) 
0.1795562598105398

>  <r_i_glide_einternal>  (1) 
2.9751057507270762

>  <r_i_glide_emodel>  (1) 
-50.762169984134815

>  <r_i_glide_emodel_strain>  (1) 
0

>  <r_i_glide_energy>  (1) 
-35.259373537247264

>  <r_i_glide_erotb>  (1) 
0.77787292059137758

>  <r_i_glide_esite>  (1) 
-0.094754882108349162

>  <r_i_glide_evdw>  (1) 
-28.163544438718336

>  <r_i_glide_gscore>  (1) 
-6.451563283009814

>  <r_i_glide_gscore_strain>  (1) 
0

>  <r_i_glide_hbond>  (1) 
-0.34322807295960334

>  <r_i_glide_ligand_efficiency>  (1) 
-0.27269595753040321

>  <r_i_glide_ligand_efficiency_ln>  (1) 
-1.5166281696249693

>  <r_i_glide_ligand_efficiency_sa>  (1) 
-0.77551102915971859

>  <r_i_glide_lipo>  (1) 
-2.1128616845452539

>  <r_i_glide_metal>  (1) 
-0

>  <r_i_glide_rewards>  (1) 
-2.2060399772727286

>  <r_lp_Energy>  (1) 
33.157472999999996

>  <s_epik_cmdline>  (1) 
J2VwaWtfcHl0aG9uJywgJy1waHQnLCAnMS4wJywgJy1waCcsICc3LjQnLCAnLXRuJywgJzgnLCAnLW1hJywgJzUwMCcsICctaW1hZScsICc8aW5maWxlLm1hZT4nLCAnLW9tYWUnLCAnPG91dGZpbGUubWFlPic=

>  <s_epik_input>  (1) 
W09IXVtDSDJdW0NIMl1jMVtjSF1bY0hdYyhbY0hdW2NIXTEpW0NASF0oW0NIMl0yKVtOSF1bQ0BIXShDMjMpW0NIXT1DKFtDSF09MylbQ0BIXTRbQ0BASF0oW0NAQEhdNDUpW0NIMl1bQ0gyXVtDSDJdNQ==

>  <s_glide_docking_method>  (1) 
confgen

>  <s_i_glide_gridfile>  (1) 
gpcr_drd2_6luq_protein_autoprepared_prepared

>  <s_lp_Force_Field>  (1) 
S-OPLS

>  <s_lp_Variant>  (1) 
DiffSBDD_83_num_sample_100-1

>  <s_m_source_file>  (1) 
generated__ligand_DiffSBDD_2026-05-06_prepared.sdf

>  <GenAI_Model>  (1) 
DiffSBDD

>  <Protein>  (1) 
generic_title2

$$$$
DiffSBDD_55_num_sample_100
     RDKit          3D

  0  0  0  0  0  0  0  0  0  0999 V3000
M  V30 BEGIN CTAB
M  V30 COUNTS 51 54 0 0 1
M  V30 BEGIN ATOM
M  V30 1 O 7.176127 4.370393 -12.967874 0
M  V30 2 C 12.099130 9.280687 -3.573932 0
M  V30 3 C 9.269625 5.609835 -9.341655 0
M  V30 4 C 11.619040 7.369238 -8.083990 0
M  V30 5 C 8.982643 7.400286 -11.632746 0 CFG=2
M  V30 6 C 8.035125 6.208608 -11.610898 0 CFG=1
M  V30 7 S 11.833306 6.569348 -3.445071 0
M  V30 8 C 12.561307 8.070567 -2.759665 0
M  V30 9 C 11.463863 8.788551 -4.866236 0
M  V30 10 C 6.618440 5.425504 -14.989179 0
M  V30 11 N 9.434812 7.088144 -9.196341 0 CFG=1 CHG=1
M  V30 12 C 7.918750 5.585139 -13.018886 0 CFG=2
M  V30 13 C 8.409681 5.151032 -10.542135 0 CFG=2
M  V30 14 C 7.184591 6.458323 -14.044663 0
M  V30 15 C 6.233169 4.314939 -14.023859 0
M  V30 16 C 10.005797 6.794931 -5.488223 0
M  V30 17 C 10.108272 7.580133 -7.953453 0 CFG=1
M  V30 18 C 11.388245 7.266821 -5.060916 0 CFG=2
M  V30 19 C 10.464844 7.181579 -11.575299 0
M  V30 20 O 11.034854 9.573774 -5.708935 0
M  V30 21 O 7.221088 4.569447 -10.047013 0
M  V30 22 C 9.448888 6.935700 -6.719127 0
M  V30 23 C 9.762736 7.867781 -10.420468 0 CFG=1
M  V30 24 H 11.354873 9.850823 -3.020441 0
M  V30 25 H 12.930988 9.950459 -3.790034 0
M  V30 26 H 8.856138 5.163710 -8.438595 0
M  V30 27 H 10.234805 5.147895 -9.427201 0
M  V30 28 H 12.203753 8.080124 -7.504145 0
M  V30 29 H 11.834843 6.357685 -7.752369 0
M  V30 30 H 11.980551 7.468639 -9.106572 0
M  V30 31 H 8.651835 8.198419 -12.294880 0
M  V30 32 H 7.053687 6.606359 -11.354413 0
M  V30 33 H 12.303083 8.176300 -1.704752 0
M  V30 34 H 13.638090 7.954836 -2.811555 0
M  V30 35 H 7.389941 5.071290 -15.673757 0
M  V30 36 H 5.778566 5.793809 -15.579650 0
M  V30 37 H 8.907722 5.326275 -13.403891 0
M  V30 38 H 8.955699 4.336568 -11.020869 0
M  V30 39 H 6.373230 7.014876 -13.575440 0
M  V30 40 H 7.834753 7.171650 -14.548391 0
M  V30 41 H 6.235896 3.333583 -14.495343 0
M  V30 42 H 5.239240 4.495681 -13.610633 0
M  V30 43 H 9.434821 6.305154 -4.720111 0
M  V30 44 H 9.895035 8.647714 -7.901620 0
M  V30 45 H 12.131825 6.886064 -5.745691 0
M  V30 46 H 11.034436 7.769302 -12.276967 0
M  V30 47 H 10.806950 6.168004 -11.491688 0
M  V30 48 H 6.655021 5.244735 -9.700753 0
M  V30 49 H 8.445085 6.562369 -6.867486 0
M  V30 50 H 9.844609 8.940868 -10.256448 0
M  V30 51 H 8.455426 7.368372 -9.078427 0
M  V30 END ATOM
M  V30 BEGIN BOND
M  V30 1 1 6 5
M  V30 2 1 8 2
M  V30 3 1 8 7
M  V30 4 1 9 2
M  V30 5 1 11 3
M  V30 6 1 12 1
M  V30 7 1 12 6
M  V30 8 1 13 3
M  V30 9 1 13 6
M  V30 10 1 14 10
M  V30 11 1 14 12
M  V30 12 1 15 1
M  V30 13 1 15 10
M  V30 14 1 17 4
M  V30 15 1 17 11
M  V30 16 1 18 7
M  V30 17 1 18 9
M  V30 18 1 18 16
M  V30 19 1 19 5
M  V30 20 2 20 9
M  V30 21 1 21 13
M  V30 22 2 22 16
M  V30 23 1 22 17
M  V30 24 1 23 5
M  V30 25 1 23 11
M  V30 26 1 23 19
M  V30 27 1 24 2
M  V30 28 1 25 2
M  V30 29 1 26 3
M  V30 30 1 27 3
M  V30 31 1 28 4
M  V30 32 1 29 4
M  V30 33 1 30 4
M  V30 34 1 5 31 CFG=3
M  V30 35 1 6 32 CFG=1
M  V30 36 1 33 8
M  V30 37 1 34 8
M  V30 38 1 35 10
M  V30 39 1 36 10
M  V30 40 1 12 37 CFG=3
M  V30 41 1 13 38 CFG=3
M  V30 42 1 39 14
M  V30 43 1 40 14
M  V30 44 1 41 15
M  V30 45 1 42 15
M  V30 46 1 43 16
M  V30 47 1 17 44 CFG=1
M  V30 48 1 18 45 CFG=3
M  V30 49 1 46 19
M  V30 50 1 47 19
M  V30 51 1 48 21
M  V30 52 1 49 22
M  V30 53 1 23 50 CFG=1
M  V30 54 1 11 51 CFG=1
M  V30 END BOND
M  V30 END CTAB
M  END
>  <i_epik_Tot_Q>  (1) 
1

>  <i_epik_Tot_abs_Q>  (1) 
1

>  <i_i_glide_confnum>  (1) 
47

>  <i_i_glide_lignum>  (1) 
107

>  <i_i_glide_posenum>  (1) 
155

>  <i_i_glide_rotatable_bonds>  (1) 
5

>  <i_lp_mmshare_version>  (1) 
72125

>  <i_m_source_file_index>  (1) 
56

>  <i_f3d_flags>  (1) 
0

>  <num_sample>  (1) 
100

>  <b_lp_Chiralities_Consistent>  (1) 
1

>  <r_epik_Charging_Adjusted_Penalty>  (1) 
0.1887110856522376

>  <r_epik_Ionization_Penalty>  (1) 
0.094355642401006162

>  <r_epik_Ionization_Penalty_Charging>  (1) 
0.094355542826118813

>  <r_epik_Ionization_Penalty_Neutral>  (1) 
9.9574887353862298e-08

>  <r_epik_State_Penalty>  (1) 
0.094355542826118799

>  <r_glide_ring_energy>  (1) 
0.48034924446920019

>  <r_i_docking_score>  (1) 
-6.2705671459451011

>  <r_i_glide_ecoul>  (1) 
-6.3619281982230795

>  <r_i_glide_eff_state_penalty>  (1) 
0.094355542826118799

>  <r_i_glide_einternal>  (1) 
7.8556724090701699

>  <r_i_glide_emodel>  (1) 
-45.657029854359067

>  <r_i_glide_emodel_strain>  (1) 
0.29885533168963718

>  <r_i_glide_energy>  (1) 
-34.534021964429641

>  <r_i_glide_erotb>  (1) 
0.49519417565235591

>  <r_i_glide_esite>  (1) 
-0.10000000000000001

>  <r_i_glide_evdw>  (1) 
-28.172093766206565

>  <r_i_glide_gscore>  (1) 
-6.3649226887712196

>  <r_i_glide_gscore_strain>  (1) 
0

>  <r_i_glide_hbond>  (1) 
-0.25256322066113646

>  <r_i_glide_ligand_efficiency>  (1) 
-0.27263335417152612

>  <r_i_glide_ligand_efficiency_ln>  (1) 
-1.5162799942488252

>  <r_i_glide_ligand_efficiency_sa>  (1) 
-0.77533299353458029

>  <r_i_glide_lipo>  (1) 
-1.8389841907010207

>  <r_i_glide_metal>  (1) 
-0

>  <r_i_glide_rewards>  (1) 
-2.3056755350176266

>  <r_lp_Energy>  (1) 
19.031651

>  <r_lp_tautomer_probability>  (1) 
0.99995000000000001

>  <s_epik_cmdline>  (1) 
J2VwaWtfcHl0aG9uJywgJy1waHQnLCAnMS4wJywgJy1waCcsICc3LjQnLCAnLXRuJywgJzgnLCAnLW1hJywgJzUwMCcsICctaW1hZScsICc8aW5maWxlLm1hZT4nLCAnLW9tYWUnLCAnPG91dGZpbGUubWFlPic=

>  <s_epik_input>  (1) 
W0NIMl0xW0NIMl1bQ0gyXU9bQ0BASF0xW0NASF0yW0NASF0oW09IXSlbQ0gyXU4oW0NASF0oW0NASF0yMylbQ0gyXTMpW0NASF0oW0NIM10pL1tDSF09W0NIXVxbQ0BASF00U1tDSDJdW0NIMl1DND1P

>  <s_glide_docking_method>  (1) 
confgen

>  <s_i_glide_gridfile>  (1) 
gpcr_drd2_6luq_protein_autoprepared_prepared

>  <s_lp_Force_Field>  (1) 
S-OPLS

>  <s_lp_Variant>  (1) 
DiffSBDD_55_num_sample_100-8

>  <s_m_source_file>  (1) 
generated__ligand_DiffSBDD_2026-05-06_prepared.sdf

>  <GenAI_Model>  (1) 
DiffSBDD

>  <Protein>  (1) 
generic_title2

$$$$
DiffSBDD_83_num_sample_100
     RDKit          3D

  0  0  0  0  0  0  0  0  0  0999 V3000
M  V30 BEGIN CTAB
M  V30 COUNTS 49 53 0 0 1
M  V30 BEGIN ATOM
M  V30 1 C 9.835687 7.157537 -10.262167 0
M  V30 2 C 6.634078 6.357939 -18.137609 0
M  V30 3 C 5.283899 6.432061 -16.105140 0 CFG=1
M  V30 4 C 6.093252 5.611503 -13.206114 0
M  V30 5 C 6.628913 6.588670 -15.457016 0 CFG=2
M  V30 6 N 7.124770 5.447760 -10.698442 0 CHG=1
M  V30 7 C 4.725618 7.462667 -17.052236 0
M  V30 8 C 10.917817 7.816902 -8.175442 0
M  V30 9 C 6.497887 5.794412 -16.740207 0 CFG=2
M  V30 10 C 6.947802 5.893495 -14.182336 0
M  V30 11 C 11.748413 8.807313 -7.382952 0
M  V30 12 C 8.533916 4.986876 -10.424987 0 CFG=1
M  V30 13 C 9.670612 5.727748 -8.291486 0
M  V30 14 C 8.181788 5.460661 -13.790063 0
M  V30 15 C 10.613427 8.073378 -9.528544 0
M  V30 16 C 5.340425 7.141002 -18.419351 0
M  V30 17 C 9.201990 4.461048 -11.739687 0
M  V30 18 C 10.445703 6.639771 -7.560380 0
M  V30 19 C 8.089875 4.899761 -12.597306 0
M  V30 20 C 11.143798 9.102468 -6.002085 0
M  V30 21 O 11.835059 10.169049 -5.404302 0
M  V30 22 C 6.690498 4.832069 -11.967810 0 CFG=2
M  V30 23 C 9.364966 5.982110 -9.643337 0
M  V30 24 H 9.602291 7.356012 -11.298292 0
M  V30 25 H 7.515487 6.992319 -18.193278 0
M  V30 26 H 6.767322 5.551397 -18.858892 0
M  V30 27 H 4.567720 5.769310 -15.639106 0
M  V30 28 H 5.042201 5.856036 -13.244349 0
M  V30 29 H 7.035035 7.596205 -15.490969 0
M  V30 30 H 6.515727 5.199581 -9.930526 0
M  V30 31 H 5.033440 8.452065 -16.711825 0
M  V30 32 H 3.635657 7.433276 -17.072794 0
M  V30 33 H 6.634175 4.717729 -16.655138 0
M  V30 34 H 11.833625 9.734258 -7.950462 0
M  V30 35 H 12.761788 8.421283 -7.287247 0
M  V30 36 H 8.388649 4.169338 -9.745595 0
M  V30 37 H 9.310421 4.828633 -7.815694 0
M  V30 38 H 9.100519 5.620347 -14.335350 0
M  V30 39 H 10.975433 8.970870 -10.002567 0
M  V30 40 H 5.505794 8.033501 -19.023304 0
M  V30 41 H 4.652854 6.501879 -18.974682 0
M  V30 42 H 10.150545 4.933001 -11.999786 0
M  V30 43 H 9.300942 3.375008 -11.749020 0
M  V30 44 H 10.677421 6.435826 -6.526339 0
M  V30 45 H 11.199370 8.237265 -5.341176 0
M  V30 46 H 10.092118 9.369211 -6.100375 0
M  V30 47 H 11.418972 10.375972 -4.581032 0
M  V30 48 H 6.350256 3.800333 -11.872852 0
M  V30 49 H 7.127176 6.462111 -10.757517 0
M  V30 END ATOM
M  V30 BEGIN BOND
M  V30 1 1 5 3
M  V30 2 1 7 3
M  V30 3 1 9 2
M  V30 4 1 9 3
M  V30 5 1 9 5
M  V30 6 2 10 4
M  V30 7 1 10 5
M  V30 8 1 11 8
M  V30 9 1 12 6
M  V30 10 1 14 10
M  V30 11 2 15 1
M  V30 12 1 15 8
M  V30 13 1 16 2
M  V30 14 1 16 7
M  V30 15 1 17 12
M  V30 16 2 18 8
M  V30 17 1 18 13
M  V30 18 2 19 14
M  V30 19 1 19 17
M  V30 20 1 20 11
M  V30 21 1 21 20
M  V30 22 1 22 4
M  V30 23 1 22 6
M  V30 24 1 22 19
M  V30 25 1 23 1
M  V30 26 1 23 12
M  V30 27 2 23 13
M  V30 28 1 24 1
M  V30 29 1 25 2
M  V30 30 1 26 2
M  V30 31 1 3 27 CFG=1
M  V30 32 1 28 4
M  V30 33 1 5 29 CFG=3
M  V30 34 1 30 6
M  V30 35 1 31 7
M  V30 36 1 32 7
M  V30 37 1 9 33 CFG=1
M  V30 38 1 34 11
M  V30 39 1 35 11
M  V30 40 1 12 36 CFG=1
M  V30 41 1 37 13
M  V30 42 1 38 14
M  V30 43 1 39 15
M  V30 44 1 40 16
M  V30 45 1 41 16
M  V30 46 1 42 17
M  V30 47 1 43 17
M  V30 48 1 44 18
M  V30 49 1 45 20
M  V30 50 1 46 20
M  V30 51 1 47 21
M  V30 52 1 22 48 CFG=1
M  V30 53 1 49 6
M  V30 END BOND
M  V30 END CTAB
M  END
>  <i_epik_Tot_Q>  (1) 
1

>  <i_epik_Tot_abs_Q>  (1) 
1

>  <i_i_glide_confnum>  (1) 
173

>  <i_i_glide_lignum>  (1) 
169

>  <i_i_glide_posenum>  (1) 
211

>  <i_i_glide_rotatable_bonds>  (1) 
5

>  <i_lp_mmshare_version>  (1) 
72125

>  <i_m_source_file_index>  (1) 
84

>  <i_f3d_flags>  (1) 
0

>  <num_sample>  (1) 
100

>  <b_lp_Chiralities_Consistent>  (1) 
1

>  <r_epik_Charging_Adjusted_Penalty>  (1) 
0.3591125196210796

>  <r_epik_Ionization_Penalty>  (1) 
0.17955633890062345

>  <r_epik_Ionization_Penalty_Charging>  (1) 
0.1795562598105398

>  <r_epik_Ionization_Penalty_Neutral>  (1) 
7.9090083639956194e-08

>  <r_epik_State_Penalty>  (1) 
0.1795562598105398

>  <r_glide_ring_energy>  (1) 
1.4396960314071907

>  <r_i_docking_score>  (1) 
-6.2634063685608146

>  <r_i_glide_ecoul>  (1) 
-4.2846092293461009

>  <r_i_glide_eff_state_penalty>  (1) 
0.1795562598105398

>  <r_i_glide_einternal>  (1) 
3.1137710487781396

>  <r_i_glide_emodel>  (1) 
-51.558868110950449

>  <r_i_glide_emodel_strain>  (1) 
0.11902506765810017

>  <r_i_glide_energy>  (1) 
-36.267079414590619

>  <r_i_glide_erotb>  (1) 
0.77787292059137758

>  <r_i_glide_esite>  (1) 
-0.10000000000000001

>  <r_i_glide_evdw>  (1) 
-31.982470185244519

>  <r_i_glide_gscore>  (1) 
-6.4429626283713546

>  <r_i_glide_gscore_strain>  (1) 
0

>  <r_i_glide_hbond>  (1) 
-0.12899127903675867

>  <r_i_glide_ligand_efficiency>  (1) 
-0.27232201602438322

>  <r_i_glide_ligand_efficiency_ln>  (1) 
-1.5145484533469653

>  <r_i_glide_ligand_efficiency_sa>  (1) 
-0.77444758925835244

>  <r_i_glide_lipo>  (1) 
-2.5439893989891034

>  <r_i_glide_metal>  (1) 
-0

>  <r_i_glide_rewards>  (1) 
-2.2060399772727286

>  <r_lp_Energy>  (1) 
33.157472999999996

>  <s_epik_cmdline>  (1) 
J2VwaWtfcHl0aG9uJywgJy1waHQnLCAnMS4wJywgJy1waCcsICc3LjQnLCAnLXRuJywgJzgnLCAnLW1hJywgJzUwMCcsICctaW1hZScsICc8aW5maWxlLm1hZT4nLCAnLW9tYWUnLCAnPG91dGZpbGUubWFlPic=

>  <s_epik_input>  (1) 
W09IXVtDSDJdW0NIMl1jMVtjSF1bY0hdYyhbY0hdW2NIXTEpW0NASF0oW0NIMl0yKVtOSF1bQ0BIXShDMjMpW0NIXT1DKFtDSF09MylbQ0BIXTRbQ0BASF0oW0NAQEhdNDUpW0NIMl1bQ0gyXVtDSDJdNQ==

>  <s_glide_docking_method>  (1) 
confgen

>  <s_i_glide_gridfile>  (1) 
gpcr_drd2_6luq_protein_autoprepared_prepared

>  <s_lp_Force_Field>  (1) 
S-OPLS

>  <s_lp_Variant>  (1) 
DiffSBDD_83_num_sample_100-1

>  <s_m_source_file>  (1) 
generated__ligand_DiffSBDD_2026-05-06_prepared.sdf

>  <GenAI_Model>  (1) 
DiffSBDD

>  <Protein>  (1) 
generic_title2

$$$$
DiffSBDD_49_num_sample_100
     RDKit          3D

  0  0  0  0  0  0  0  0  0  0999 V3000
M  V30 BEGIN CTAB
M  V30 COUNTS 53 56 0 0 1
M  V30 BEGIN ATOM
M  V30 1 N 8.861043 5.570014 -13.586121 0
M  V30 2 C 6.259620 6.166750 -17.701406 0
M  V30 3 C 5.663314 7.409424 -15.689655 0
M  V30 4 C 6.367632 4.440117 -10.622889 0
M  V30 5 C 10.773106 6.844089 -7.405704 0
M  V30 6 S 7.700337 3.271528 -14.368500 0
M  V30 7 C 7.213385 5.431039 -16.967844 0
M  V30 8 C 10.149383 7.197935 -9.830961 0 CFG=1
M  V30 9 C 8.433173 4.883476 -14.798821 0 CFG=1
M  V30 10 C 6.343811 3.749994 -12.002135 0
M  V30 11 C 9.204257 7.007211 -11.047667 0
M  V30 12 C 8.429253 4.999866 -12.549675 0
M  V30 13 C 11.646377 8.129788 -7.417878 0 CFG=2
M  V30 14 O 11.292771 8.820571 -5.109889 0
M  V30 15 C 8.509322 5.614738 -11.151990 0 CFG=2
M  V30 16 C 11.145841 9.220699 -6.456907 0
M  V30 17 C 7.396104 5.685536 -15.591103 0
M  V30 18 C 10.696117 8.619633 -9.743909 0
M  V30 19 C 5.486256 7.154738 -17.061990 0
M  V30 20 C 7.751838 3.664579 -12.623114 0 CFG=2
M  V30 21 C 9.617795 6.844363 -8.429089 0
M  V30 22 N 7.094624 5.735102 -10.729319 0 CHG=1
M  V30 23 C 11.908094 8.694679 -8.823958 0
M  V30 24 C 6.613412 6.679178 -14.952923 0
M  V30 25 H 9.026365 4.899394 -10.510188 0
M  V30 26 H 6.121595 5.972688 -18.755214 0
M  V30 27 H 5.068956 8.167580 -15.200430 0
M  V30 28 H 5.344815 4.624440 -10.295836 0
M  V30 29 H 6.820349 3.774456 -9.880093 0
M  V30 30 H 11.414875 5.986997 -7.606102 0
M  V30 31 H 10.372415 6.666321 -6.406603 0
M  V30 32 H 7.804905 4.672289 -17.460723 0
M  V30 33 H 11.009562 6.569631 -10.021452 0
M  V30 34 H 9.299878 4.705850 -15.436392 0
M  V30 35 H 5.685027 4.307762 -12.670780 0
M  V30 36 H 5.914521 2.751947 -11.920413 0
M  V30 37 H 8.462592 7.805735 -11.090395 0
M  V30 38 H 9.827534 7.184059 -11.924924 0
M  V30 39 H 12.633207 7.832118 -7.090412 0
M  V30 40 H 12.210653 8.691243 -4.928249 0
M  V30 41 H 10.099529 9.433971 -6.668755 0
M  V30 42 H 11.722631 10.140619 -6.586816 0
M  V30 43 H 11.033868 8.946840 -10.710863 0
M  V30 44 H 9.917162 9.315345 -9.429611 0
M  V30 45 H 4.757192 7.719349 -17.625716 0
M  V30 46 H 9.129798 5.871152 -8.418304 0
M  V30 47 H 8.868152 7.568687 -8.114536 0
M  V30 48 H 12.230743 9.735721 -8.770025 0
M  V30 49 H 12.732480 8.144197 -9.281945 0
M  V30 50 H 6.741527 6.881388 -13.901630 0
M  V30 51 H 7.026989 6.323656 -9.891557 0
M  V30 52 H 8.373789 2.928389 -12.115530 0
M  V30 53 H 6.629257 6.284574 -11.436026 0
M  V30 END ATOM
M  V30 BEGIN BOND
M  V30 1 1 7 2
M  V30 2 1 9 1
M  V30 3 1 9 6
M  V30 4 1 10 4
M  V30 5 1 11 8
M  V30 6 2 12 1
M  V30 7 1 13 5
M  V30 8 1 15 11
M  V30 9 1 15 12
M  V30 10 1 16 13
M  V30 11 1 16 14
M  V30 12 2 17 7
M  V30 13 1 17 9
M  V30 14 1 18 8
M  V30 15 2 19 2
M  V30 16 1 19 3
M  V30 17 1 20 6
M  V30 18 1 20 10
M  V30 19 1 20 12
M  V30 20 1 21 5
M  V30 21 1 21 8
M  V30 22 1 22 4
M  V30 23 1 22 15
M  V30 24 1 23 13
M  V30 25 1 23 18
M  V30 26 2 24 3
M  V30 27 1 24 17
M  V30 28 1 15 25 CFG=1
M  V30 29 1 26 2
M  V30 30 1 27 3
M  V30 31 1 28 4
M  V30 32 1 29 4
M  V30 33 1 30 5
M  V30 34 1 31 5
M  V30 35 1 32 7
M  V30 36 1 8 33 CFG=3
M  V30 37 1 9 34 CFG=3
M  V30 38 1 35 10
M  V30 39 1 36 10
M  V30 40 1 37 11
M  V30 41 1 38 11
M  V30 42 1 13 39 CFG=1
M  V30 43 1 40 14
M  V30 44 1 41 16
M  V30 45 1 42 16
M  V30 46 1 43 18
M  V30 47 1 44 18
M  V30 48 1 45 19
M  V30 49 1 46 21
M  V30 50 1 47 21
M  V30 51 1 48 23
M  V30 52 1 49 23
M  V30 53 1 50 24
M  V30 54 1 51 22
M  V30 55 1 20 52 CFG=1
M  V30 56 1 53 22
M  V30 END BOND
M  V30 END CTAB
M  END
>  <i_epik_Tot_Q>  (1) 
1

>  <i_epik_Tot_abs_Q>  (1) 
1

>  <i_i_glide_confnum>  (1) 
83

>  <i_i_glide_lignum>  (1) 
93

>  <i_i_glide_posenum>  (1) 
356

>  <i_i_glide_rotatable_bonds>  (1) 
5

>  <i_lp_mmshare_version>  (1) 
72125

>  <i_m_source_file_index>  (1) 
50

>  <i_f3d_flags>  (1) 
0

>  <num_sample>  (1) 
100

>  <b_lp_Chiralities_Consistent>  (1) 
1

>  <r_epik_Charging_Adjusted_Penalty>  (1) 
1.8117775797116225

>  <r_epik_Ionization_Penalty>  (1) 
0.90588925903239437

>  <r_epik_Ionization_Penalty_Charging>  (1) 
0.90588878985581123

>  <r_epik_Ionization_Penalty_Neutral>  (1) 
4.6917658313918283e-07

>  <r_epik_State_Penalty>  (1) 
0.90588878985581134

>  <r_glide_ring_energy>  (1) 
0

>  <r_i_docking_score>  (1) 
-6.2475885792508334

>  <r_i_glide_ecoul>  (1) 
-8.879169487081283

>  <r_i_glide_eff_state_penalty>  (1) 
0.90588878985581134

>  <r_i_glide_einternal>  (1) 
27.462913904821367

>  <r_i_glide_emodel>  (1) 
-30.527120691925013

>  <r_i_glide_emodel_strain>  (1) 
2.3852985966890614

>  <r_i_glide_energy>  (1) 
-36.147319730224552

>  <r_i_glide_erotb>  (1) 
0.63659216225735071

>  <r_i_glide_esite>  (1) 
-0.10000000000000001

>  <r_i_glide_evdw>  (1) 
-27.268150243143271

>  <r_i_glide_gscore>  (1) 
-7.1534773691066444

>  <r_i_glide_gscore_strain>  (1) 
0

>  <r_i_glide_hbond>  (1) 
-0.17295088073368642

>  <r_i_glide_ligand_efficiency>  (1) 
-0.26031619080211804

>  <r_i_glide_ligand_efficiency_ln>  (1) 
-1.4953346301741015

>  <r_i_glide_ligand_efficiency_sa>  (1) 
-0.75088182865683217

>  <r_i_glide_lipo>  (1) 
-2.7263819627158044

>  <r_i_glide_metal>  (1) 
-0

>  <r_i_glide_rewards>  (1) 
-2.0954537526951489

>  <r_lp_Energy>  (1) 
30.244025999999998

>  <r_lp_tautomer_probability>  (1) 
0.99998600000000004

>  <s_epik_Chemistry_Notes>  (1) 
This compound has an imine and may undergo hydrolysis. This compound contains an acetal/aminal-like group ( X-CH(R)-Y where X, Y are N, S, or O) that may be acid/base labile, releasing an aldehyde.

>  <s_epik_cmdline>  (1) 
J2VwaWtfcHl0aG9uJywgJy1waHQnLCAnMS4wJywgJy1waCcsICc3LjQnLCAnLXRuJywgJzgnLCAnLW1hJywgJzUwMCcsICctaW1hZScsICc8aW5maWxlLm1hZT4nLCAnLW9tYWUnLCAnPG91dGZpbGUubWFlPic=

>  <s_epik_input>  (1) 
W2NIXTFbY0hdW2NIXVtjSF1bY0hdYzFbQ0BASF0oW05IXTIpU1tDQEBIXShbQ0BIXTIzKVtDSDJdW0NIMl1OPUMzW0NIMl1bQ0BIXTRbQ0gyXVtDSDJdW0NASF0oW0NIMl1bQ0gyXTQpW0NIMl1bT0hd

>  <s_glide_docking_method>  (1) 
confgen

>  <s_i_glide_gridfile>  (1) 
gpcr_drd2_6luq_protein_autoprepared_prepared

>  <s_lp_Force_Field>  (1) 
S-OPLS

>  <s_lp_Variant>  (1) 
DiffSBDD_49_num_sample_100-3

>  <s_m_source_file>  (1) 
generated__ligand_DiffSBDD_2026-05-06_prepared.sdf

>  <GenAI_Model>  (1) 
DiffSBDD

>  <Protein>  (1) 
generic_title2

$$$$
DiffSBDD_90_num_sample_100
     RDKit          3D

  0  0  0  0  0  0  0  0  0  0999 V3000
M  V30 BEGIN CTAB
M  V30 COUNTS 61 65 0 0 1
M  V30 BEGIN ATOM
M  V30 1 C 6.368694 4.592851 -20.251053 0
M  V30 2 C 7.185298 4.836483 -17.121917 0
M  V30 3 C 11.561139 9.088454 -6.500937 0
M  V30 4 S 5.629083 5.125375 -21.734553 0
M  V30 5 C 6.800166 6.446903 -15.300596 0
M  V30 6 C 5.834108 6.818961 -17.496698 0
M  V30 7 C 6.002231 7.242628 -16.171289 0
M  V30 8 C 10.733024 8.359683 -7.584247 0
M  V30 9 C 11.750776 7.570843 -4.424554 0
M  V30 10 C 11.400316 10.022673 -4.162411 0
M  V30 11 N 10.604903 6.873239 -7.465305 0 CFG=2 CHG=1
M  V30 12 C 11.662157 6.207581 -6.665602 0
M  V30 13 C 8.857136 5.968152 -10.819563 0
M  V30 14 C 8.423569 4.888371 -13.591642 0
M  V30 15 C 6.406518 5.659815 -17.940314 0
M  V30 16 C 10.438535 6.222049 -8.793642 0
M  V30 17 C 5.017130 6.570436 -20.951140 0
M  V30 18 C 5.016389 7.611614 -18.602057 0
M  V30 19 C 7.024777 6.857480 -13.976611 0
M  V30 20 C 11.383647 6.271193 -5.148497 0
M  V30 21 N 5.366742 6.550673 -19.651220 0 CHG=1
M  V30 22 C 4.234989 7.677475 -21.584424 0
M  V30 23 C 11.111882 8.814275 -5.056168 0 CFG=1
M  V30 24 C 8.189434 4.461699 -14.917143 0
M  V30 25 C 7.392698 5.238333 -15.778437 0
M  V30 26 C 8.096307 6.588518 -11.747262 0
M  V30 27 C 9.086228 6.528656 -9.424519 0
M  V30 28 C 7.847107 6.095939 -13.117446 0
M  V30 29 C 6.114720 5.489886 -19.255446 0
M  V30 30 H 6.934516 3.672642 -20.211243 0
M  V30 31 H 7.630756 3.930411 -17.506101 0
M  V30 32 H 11.441811 10.155075 -6.692918 0
M  V30 33 H 12.630383 8.919464 -6.624222 0
M  V30 34 H 5.555456 8.163575 -15.824734 0
M  V30 35 H 11.182059 8.612644 -8.545770 0
M  V30 36 H 9.723499 8.775987 -7.609653 0
M  V30 37 H 11.434841 7.470519 -3.387536 0
M  V30 38 H 12.817100 7.708629 -4.291662 0
M  V30 39 H 12.478660 10.169314 -4.096712 0
M  V30 40 H 10.942914 10.935849 -4.549511 0
M  V30 41 H 11.034859 9.867251 -3.147287 0
M  V30 42 H 11.688271 5.148075 -6.908029 0
M  V30 43 H 12.634548 6.569244 -6.983653 0
M  V30 44 H 9.336748 5.029702 -11.045910 0
M  V30 45 H 9.049387 4.292701 -12.947203 0
M  V30 46 H 10.507208 5.139388 -8.691964 0
M  V30 47 H 11.236951 6.569347 -9.453286 0
M  V30 48 H 3.940618 7.639166 -18.422816 0
M  V30 49 H 5.434768 8.576973 -18.877374 0
M  V30 50 H 6.581221 7.769269 -13.618201 0
M  V30 51 H 10.328889 6.056298 -4.971271 0
M  V30 52 H 11.928459 5.467123 -4.658761 0
M  V30 53 H 4.939329 8.400912 -21.994784 0
M  V30 54 H 3.634756 7.258132 -22.391772 0
M  V30 55 H 10.044844 8.636107 -5.097154 0
M  V30 56 H 8.633976 3.545360 -15.274113 0
M  V30 57 H 7.623785 7.524863 -11.491617 0
M  V30 58 H 9.034869 7.613760 -9.512177 0
M  V30 59 H 8.283445 6.169367 -8.776874 0
M  V30 60 H 3.594143 8.168701 -20.852503 0
M  V30 61 H 9.745140 6.695471 -6.963429 0
M  V30 END ATOM
M  V30 BEGIN BOND
M  V30 1 1 4 1
M  V30 2 2 7 5
M  V30 3 1 7 6
M  V30 4 1 8 3
M  V30 5 1 11 8
M  V30 6 1 12 11
M  V30 7 1 15 2
M  V30 8 2 15 6
M  V30 9 1 16 11
M  V30 10 1 17 4
M  V30 11 1 18 6
M  V30 12 1 19 5
M  V30 13 1 20 9
M  V30 14 1 20 12
M  V30 15 2 21 17
M  V30 16 1 21 18
M  V30 17 1 22 17
M  V30 18 1 23 3
M  V30 19 1 23 9
M  V30 20 1 23 10
M  V30 21 2 24 14
M  V30 22 2 25 2
M  V30 23 1 25 5
M  V30 24 1 25 24
M  V30 25 2 26 13
M  V30 26 1 27 13
M  V30 27 1 27 16
M  V30 28 1 28 14
M  V30 29 2 28 19
M  V30 30 1 28 26
M  V30 31 2 29 1
M  V30 32 1 29 15
M  V30 33 1 29 21
M  V30 34 1 30 1
M  V30 35 1 31 2
M  V30 36 1 32 3
M  V30 37 1 33 3
M  V30 38 1 34 7
M  V30 39 1 35 8
M  V30 40 1 36 8
M  V30 41 1 37 9
M  V30 42 1 38 9
M  V30 43 1 39 10
M  V30 44 1 40 10
M  V30 45 1 41 10
M  V30 46 1 42 12
M  V30 47 1 43 12
M  V30 48 1 44 13
M  V30 49 1 45 14
M  V30 50 1 46 16
M  V30 51 1 47 16
M  V30 52 1 48 18
M  V30 53 1 49 18
M  V30 54 1 50 19
M  V30 55 1 51 20
M  V30 56 1 52 20
M  V30 57 1 53 22
M  V30 58 1 54 22
M  V30 59 1 23 55 CFG=3
M  V30 60 1 56 24
M  V30 61 1 57 26
M  V30 62 1 58 27
M  V30 63 1 59 27
M  V30 64 1 60 22
M  V30 65 1 11 61 CFG=1
M  V30 END BOND
M  V30 END CTAB
M  END
>  <i_epik_Tot_Q>  (1) 
2

>  <i_epik_Tot_abs_Q>  (1) 
2

>  <i_i_glide_confnum>  (1) 
75

>  <i_i_glide_lignum>  (1) 
181

>  <i_i_glide_posenum>  (1) 
79

>  <i_i_glide_rotatable_bonds>  (1) 
4

>  <i_lp_mmshare_version>  (1) 
72125

>  <i_m_source_file_index>  (1) 
91

>  <i_f3d_flags>  (1) 
0

>  <num_sample>  (1) 
100

>  <b_lp_Chiralities_Consistent>  (1) 
1

>  <r_epik_Charging_Adjusted_Penalty>  (1) 
0.0021252633397680827

>  <r_epik_Ionization_Penalty>  (1) 
0.002125263340211697

>  <r_epik_Ionization_Penalty_Charging>  (1) 
0.0021252633397680827

>  <r_epik_Ionization_Penalty_Neutral>  (1) 
4.4361447992621368e-13

>  <r_epik_State_Penalty>  (1) 
-0

>  <r_glide_ring_energy>  (1) 
0.74439644786372106

>  <r_i_docking_score>  (1) 
-6.2468996260586014

>  <r_i_glide_ecoul>  (1) 
-1.8762695712844915

>  <r_i_glide_eff_state_penalty>  (1) 
-0

>  <r_i_glide_einternal>  (1) 
5.714187627701885

>  <r_i_glide_emodel>  (1) 
-39.244178744443126

>  <r_i_glide_emodel_strain>  (1) 
0.43085295265304069

>  <r_i_glide_energy>  (1) 
-29.360432927846229

>  <r_i_glide_erotb>  (1) 
0.47996519481946287

>  <r_i_glide_esite>  (1) 
0

>  <r_i_glide_evdw>  (1) 
-27.484163356561737

>  <r_i_glide_gscore>  (1) 
-6.2468996260586014

>  <r_i_glide_gscore_strain>  (1) 
0

>  <r_i_glide_hbond>  (1) 
0

>  <r_i_glide_ligand_efficiency>  (1) 
-0.21541033193305523

>  <r_i_glide_ligand_efficiency_ln>  (1) 
-1.4303816066606938

>  <r_i_glide_ligand_efficiency_sa>  (1) 
-0.66180878722449898

>  <r_i_glide_lipo>  (1) 
-3.2920584332444229

>  <r_i_glide_metal>  (1) 
-0

>  <r_i_glide_rewards>  (1) 
-1.7791577841128792

>  <r_lp_Energy>  (1) 
49.609797999999998

>  <r_lp_tautomer_probability>  (1) 
1

>  <s_epik_cmdline>  (1) 
J2VwaWtfcHl0aG9uJywgJy1waHQnLCAnMS4wJywgJy1waCcsICc3LjQnLCAnLXRuJywgJzgnLCAnLW1hJywgJzUwMCcsICctaW1hZScsICc8aW5maWxlLm1hZT4nLCAnLW9tYWUnLCAnPG91dGZpbGUubWFlPic=

>  <s_epik_input>  (1) 
W0NIMl09QzFTW0NIXT1DMk4xW0NIMl1jKFtjSF0zKWMyW2NIXWMoYzM0KVtjSF1bY0hdYyhbY0hdNClcW0NIXT1bQ0hdXFtDSDJdW0NIMl1ONVtDSDJdW0NIMl1bQ0BIXShbQ0gzXSlbQ0gyXVtDSDJdW0NIMl01

>  <s_glide_docking_method>  (1) 
confgen

>  <s_i_glide_gridfile>  (1) 
gpcr_drd2_6luq_protein_autoprepared_prepared

>  <s_lp_Force_Field>  (1) 
S-OPLS

>  <s_lp_Variant>  (1) 
DiffSBDD_90_num_sample_100-1

>  <s_m_source_file>  (1) 
generated__ligand_DiffSBDD_2026-05-06_prepared.sdf

>  <GenAI_Model>  (1) 
DiffSBDD

>  <Protein>  (1) 
generic_title2

$$$$
DiffSBDD_48_num_sample_100
     RDKit          3D

  0  0  0  0  0  0  0  0  0  0999 V3000
M  V30 BEGIN CTAB
M  V30 COUNTS 51 53 0 0 1
M  V30 BEGIN ATOM
M  V30 1 O 12.634749 7.348570 -2.101480 0
M  V30 2 O 5.434839 3.945639 -12.818778 0
M  V30 3 C 10.356400 6.421814 -6.440603 0
M  V30 4 C 6.692853 3.980169 -13.454067 0
M  V30 5 C 7.182469 6.319774 -12.461058 0
M  V30 6 N 10.429327 7.425569 -7.595095 0
M  V30 7 C 7.119941 5.436857 -13.731334 0 CFG=2
M  V30 8 N 9.434836 7.342803 -8.580997 0
M  V30 9 C 11.835054 9.492622 -5.004679 0
M  V30 10 C 6.216534 6.079445 -14.800556 0
M  V30 11 C 9.153126 6.831405 -11.007225 0
M  V30 12 C 12.635369 5.973222 -1.779090 0
M  V30 13 C 7.660854 5.142748 -10.302384 0
M  V30 14 C 12.156552 7.737886 -3.331955 0
M  V30 15 C 11.203043 8.550723 -5.826955 0
M  V30 16 C 12.319358 9.082167 -3.743917 0
M  V30 17 C 8.859901 5.053431 -9.361844 0
M  V30 18 C 9.633636 6.352081 -9.624355 0 CFG=2
M  V30 19 O 8.421401 5.373088 -14.280021 0
M  V30 20 N 8.193783 5.820109 -11.497385 0 CFG=1 CHG=1
M  V30 21 C 11.036720 7.275674 -5.444899 0
M  V30 22 C 11.493287 6.817044 -4.200206 0
M  V30 23 C 10.678349 8.857252 -7.158824 0
M  V30 24 H 5.187327 3.040497 -12.698684 0
M  V30 25 H 9.326281 6.213678 -6.149483 0
M  V30 26 H 10.901166 5.511817 -6.688664 0
M  V30 27 H 7.422078 3.465496 -12.826998 0
M  V30 28 H 6.631278 3.413098 -14.384705 0
M  V30 29 H 7.436482 7.338099 -12.760119 0
M  V30 30 H 6.201917 6.390349 -11.986549 0
M  V30 31 H 8.495764 7.298199 -8.178741 0
M  V30 32 H 11.955463 10.513188 -5.333215 0
M  V30 33 H 5.183170 6.139863 -14.457670 0
M  V30 34 H 6.535844 7.093676 -15.044594 0
M  V30 35 H 6.219684 5.500281 -15.724868 0
M  V30 36 H 9.977733 6.944578 -11.712256 0
M  V30 37 H 8.662652 7.802852 -10.919848 0
M  V30 38 H 13.278547 5.780084 -0.921484 0
M  V30 39 H 11.622258 5.661854 -1.532649 0
M  V30 40 H 13.034853 5.370012 -2.589467 0
M  V30 41 H 6.880648 5.761660 -9.855879 0
M  V30 42 H 7.228134 4.169402 -10.526711 0
M  V30 43 H 12.815789 9.788135 -3.096757 0
M  V30 44 H 8.564057 4.923779 -8.320214 0
M  V30 45 H 9.479146 4.198914 -9.638991 0
M  V30 46 H 10.695538 6.169275 -9.669535 0
M  V30 47 H 8.627574 6.205585 -14.679557 0
M  V30 48 H 11.346973 5.786578 -3.915746 0
M  V30 49 H 11.380434 9.368325 -7.818106 0
M  V30 50 H 9.723472 9.369665 -7.079652 0
M  V30 51 H 8.746819 5.140805 -12.003033 0
M  V30 END ATOM
M  V30 BEGIN BOND
M  V30 1 1 4 2
M  V30 2 1 6 3
M  V30 3 1 7 4
M  V30 4 1 7 5
M  V30 5 1 8 6
M  V30 6 1 10 7
M  V30 7 1 12 1
M  V30 8 1 14 1
M  V30 9 1 15 9
M  V30 10 2 16 9
M  V30 11 1 16 14
M  V30 12 1 17 13
M  V30 13 1 18 8
M  V30 14 1 18 11
M  V30 15 1 18 17
M  V30 16 1 7 19 CFG=3
M  V30 17 1 20 5
M  V30 18 1 20 11
M  V30 19 1 20 13
M  V30 20 1 21 3
M  V30 21 2 21 15
M  V30 22 2 22 14
M  V30 23 1 22 21
M  V30 24 1 23 6
M  V30 25 1 23 15
M  V30 26 1 24 2
M  V30 27 1 25 3
M  V30 28 1 26 3
M  V30 29 1 27 4
M  V30 30 1 28 4
M  V30 31 1 29 5
M  V30 32 1 30 5
M  V30 33 1 31 8
M  V30 34 1 32 9
M  V30 35 1 33 10
M  V30 36 1 34 10
M  V30 37 1 35 10
M  V30 38 1 36 11
M  V30 39 1 37 11
M  V30 40 1 38 12
M  V30 41 1 39 12
M  V30 42 1 40 12
M  V30 43 1 41 13
M  V30 44 1 42 13
M  V30 45 1 43 16
M  V30 46 1 44 17
M  V30 47 1 45 17
M  V30 48 1 18 46 CFG=3
M  V30 49 1 47 19
M  V30 50 1 48 22
M  V30 51 1 49 23
M  V30 52 1 50 23
M  V30 53 1 20 51 CFG=3
M  V30 END BOND
M  V30 END CTAB
M  END
>  <i_epik_Tot_Q>  (1) 
1

>  <i_epik_Tot_abs_Q>  (1) 
1

>  <i_i_glide_confnum>  (1) 
276

>  <i_i_glide_lignum>  (1) 
89

>  <i_i_glide_posenum>  (1) 
203

>  <i_i_glide_rotatable_bonds>  (1) 
8

>  <i_lp_mmshare_version>  (1) 
72125

>  <i_m_source_file_index>  (1) 
49

>  <i_f3d_flags>  (1) 
0

>  <num_sample>  (1) 
100

>  <b_lp_Chiralities_Consistent>  (1) 
1

>  <r_epik_Charging_Adjusted_Penalty>  (1) 
0.014070542232369893

>  <r_epik_Ionization_Penalty>  (1) 
0.01444304470814459

>  <r_epik_Ionization_Penalty_Charging>  (1) 
0.014070542232369893

>  <r_epik_Ionization_Penalty_Neutral>  (1) 
0.00037250247577469821

>  <r_epik_State_Penalty>  (1) 
-0

>  <r_glide_ring_energy>  (1) 
0.0027901821581941132

>  <r_i_docking_score>  (1) 
-6.2368340658545609

>  <r_i_glide_ecoul>  (1) 
-4.5002378043524631

>  <r_i_glide_eff_state_penalty>  (1) 
-0

>  <r_i_glide_einternal>  (1) 
4.2685284536392878

>  <r_i_glide_emodel>  (1) 
-55.432105289816725

>  <r_i_glide_emodel_strain>  (1) 
0.17784257227476985

>  <r_i_glide_energy>  (1) 
-37.09275753632231

>  <r_i_glide_erotb>  (1) 
0.89938055447957976

>  <r_i_glide_esite>  (1) 
-0.1643349589968171

>  <r_i_glide_evdw>  (1) 
-32.592519731969844

>  <r_i_glide_gscore>  (1) 
-6.2368340658545609

>  <r_i_glide_gscore_strain>  (1) 
0

>  <r_i_glide_hbond>  (1) 
-0.073808679083969111

>  <r_i_glide_ligand_efficiency>  (1) 
-0.27116669851541569

>  <r_i_glide_ligand_efficiency_ln>  (1) 
-1.5081230296082735

>  <r_i_glide_ligand_efficiency_sa>  (1) 
-0.7711620199433552

>  <r_i_glide_lipo>  (1) 
-2.6298964300903003

>  <r_i_glide_metal>  (1) 
-0

>  <r_i_glide_rewards>  (1) 
-1.9635128949116911

>  <r_lp_Energy>  (1) 
33.837268999999999

>  <r_lp_tautomer_probability>  (1) 
1

>  <s_epik_cmdline>  (1) 
J2VwaWtfcHl0aG9uJywgJy1waHQnLCAnMS4wJywgJy1waCcsICc3LjQnLCAnLXRuJywgJzgnLCAnLW1hJywgJzUwMCcsICctaW1hZScsICc8aW5maWxlLm1hZT4nLCAnLW9tYWUnLCAnPG91dGZpbGUubWFlPic=

>  <s_epik_input>  (1) 
W2NIXTFbY0hdYyhPW0NIM10pW2NIXWMoYzEyKVtDSDJdTihbQ0gyXTIpW05IXVtDQEBIXTNbQ0gyXU4oW0NIMl1bQ0gyXTMpW0NIMl1bQ0BAXShbQ0gzXSkoW09IXSlbQ0gyXVtPSF0=

>  <s_glide_docking_method>  (1) 
confgen

>  <s_i_glide_gridfile>  (1) 
gpcr_drd2_6luq_protein_autoprepared_prepared

>  <s_lp_Force_Field>  (1) 
S-OPLS

>  <s_lp_Variant>  (1) 
DiffSBDD_48_num_sample_100-1

>  <s_m_source_file>  (1) 
generated__ligand_DiffSBDD_2026-05-06_prepared.sdf

>  <GenAI_Model>  (1) 
DiffSBDD

>  <Protein>  (1) 
generic_title2

$$$$
DiffSBDD_61_num_sample_100
     RDKit          3D

  0  0  0  0  0  0  0  0  0  0999 V3000
M  V30 BEGIN CTAB
M  V30 COUNTS 52 54 0 0 1
M  V30 BEGIN ATOM
M  V30 1 N 11.294369 7.929271 -5.292980 0 CFG=2 CHG=1
M  V30 2 C 5.991425 6.161585 -14.231571 0
M  V30 3 C 6.785347 6.388479 -12.929977 0 CFG=1
M  V30 4 O 12.392844 7.064623 -1.891735 0
M  V30 5 C 12.658298 8.436403 -1.934750 0
M  V30 6 O 6.164574 7.435774 -12.203680 0
M  V30 7 C 9.657244 8.178185 -9.914872 0
M  V30 8 O 5.834844 3.769308 -10.291671 0
M  V30 9 C 11.144589 7.870277 -9.710341 0
M  V30 10 C 9.088172 6.701083 -12.002116 0 CFG=1
M  V30 11 C 11.264532 6.601997 -5.980785 0
M  V30 12 C 6.888472 5.144833 -12.014165 0 CFG=2
M  V30 13 C 5.608970 4.814351 -11.209262 0
M  V30 14 C 10.777008 6.674055 -7.433535 0
M  V30 15 C 8.230340 6.778180 -13.266066 0
M  V30 16 C 11.547263 7.743479 -8.228600 0 CFG=2
M  V30 17 O 5.034885 5.369297 -14.178630 0 CHG=-1
M  V30 18 C 11.904461 9.028960 -6.089276 0
M  V30 19 C 9.182282 8.105712 -11.365131 0
M  V30 20 C 11.357160 9.068196 -7.505380 0
M  V30 21 C 11.867934 6.750698 -3.116302 0
M  V30 22 C 11.834840 7.864713 -3.875635 0
M  V30 23 C 12.328121 8.959149 -3.156514 0
M  V30 24 S 8.342130 5.414399 -10.949023 0
M  V30 25 O 6.359373 6.794004 -15.248262 0
M  V30 26 H 13.072012 8.854248 -1.029322 0
M  V30 27 H 6.575559 7.502224 -11.344621 0
M  V30 28 H 9.443272 9.177240 -9.538769 0
M  V30 29 H 9.034866 7.515233 -9.322278 0
M  V30 30 H 5.690210 4.122036 -9.413864 0
M  V30 31 H 11.411617 6.969298 -10.244447 0
M  V30 32 H 11.737693 8.656674 -10.179751 0
M  V30 33 H 10.095799 6.371567 -12.259074 0
M  V30 34 H 12.234827 6.122798 -5.954216 0
M  V30 35 H 10.594330 5.940725 -5.430662 0
M  V30 36 H 7.133482 4.280946 -12.634138 0
M  V30 37 H 4.806122 4.503876 -11.875445 0
M  V30 38 H 5.248021 5.677486 -10.649121 0
M  V30 39 H 9.709984 6.892295 -7.409545 0
M  V30 40 H 10.877750 5.697404 -7.906735 0
M  V30 41 H 8.234816 7.769321 -13.712636 0
M  V30 42 H 8.634374 6.086203 -14.006408 0
M  V30 43 H 12.608723 7.495984 -8.205014 0
M  V30 44 H 12.990072 8.969310 -6.119714 0
M  V30 45 H 11.671257 9.983889 -5.617295 0
M  V30 46 H 9.826534 8.709309 -11.998512 0
M  V30 47 H 8.215211 8.601806 -11.396656 0
M  V30 48 H 11.834837 9.859669 -8.075256 0
M  V30 49 H 10.295904 9.302631 -7.440738 0
M  V30 50 H 11.579675 5.723176 -3.258731 0
M  V30 51 H 12.427079 9.985849 -3.465911 0
M  V30 52 H 10.316896 8.180910 -5.243320 0
M  V30 END ATOM
M  V30 BEGIN BOND
M  V30 1 1 3 2
M  V30 2 1 5 4
M  V30 3 1 3 6 CFG=1
M  V30 4 1 9 7
M  V30 5 1 11 1
M  V30 6 1 12 3
M  V30 7 1 13 8
M  V30 8 1 13 12
M  V30 9 1 14 11
M  V30 10 1 15 3
M  V30 11 1 15 10
M  V30 12 1 16 9
M  V30 13 1 16 14
M  V30 14 1 17 2
M  V30 15 1 18 1
M  V30 16 1 19 7
M  V30 17 1 19 10
M  V30 18 1 20 16
M  V30 19 1 20 18
M  V30 20 1 21 4
M  V30 21 1 22 1
M  V30 22 2 22 21
M  V30 23 2 23 5
M  V30 24 1 23 22
M  V30 25 1 24 10
M  V30 26 1 24 12
M  V30 27 2 25 2
M  V30 28 1 26 5
M  V30 29 1 27 6
M  V30 30 1 28 7
M  V30 31 1 29 7
M  V30 32 1 30 8
M  V30 33 1 31 9
M  V30 34 1 32 9
M  V30 35 1 10 33 CFG=3
M  V30 36 1 34 11
M  V30 37 1 35 11
M  V30 38 1 12 36 CFG=3
M  V30 39 1 37 13
M  V30 40 1 38 13
M  V30 41 1 39 14
M  V30 42 1 40 14
M  V30 43 1 41 15
M  V30 44 1 42 15
M  V30 45 1 16 43 CFG=3
M  V30 46 1 44 18
M  V30 47 1 45 18
M  V30 48 1 46 19
M  V30 49 1 47 19
M  V30 50 1 48 20
M  V30 51 1 49 20
M  V30 52 1 50 21
M  V30 53 1 51 23
M  V30 54 1 1 52 CFG=1
M  V30 END BOND
M  V30 END CTAB
M  END
>  <i_epik_Tot_Q>  (1) 
0

>  <i_epik_Tot_abs_Q>  (1) 
2

>  <i_i_glide_confnum>  (1) 
76

>  <i_i_glide_lignum>  (1) 
121

>  <i_i_glide_posenum>  (1) 
283

>  <i_i_glide_rotatable_bonds>  (1) 
9

>  <i_lp_mmshare_version>  (1) 
72125

>  <i_m_source_file_index>  (1) 
62

>  <i_f3d_flags>  (1) 
0

>  <num_sample>  (1) 
100

>  <b_lp_Chiralities_Consistent>  (1) 
1

>  <r_epik_Charging_Adjusted_Penalty>  (1) 
0.30587031255842323

>  <r_epik_Ionization_Penalty>  (1) 
0.15296771237530521

>  <r_epik_Ionization_Penalty_Charging>  (1) 
0.15296734445016963

>  <r_epik_Ionization_Penalty_Neutral>  (1) 
3.6792513557102453e-07

>  <r_epik_State_Penalty>  (1) 
0.15290296810825357

>  <r_glide_ring_energy>  (1) 
0

>  <r_i_docking_score>  (1) 
-6.2189955890369299

>  <r_i_glide_ecoul>  (1) 
-7.4184036599722933

>  <r_i_glide_eff_state_penalty>  (1) 
0.15290296810825357

>  <r_i_glide_einternal>  (1) 
8.1640714993847485

>  <r_i_glide_emodel>  (1) 
-44.334857178095575

>  <r_i_glide_emodel_strain>  (1) 
1.7613056044051945

>  <r_i_glide_energy>  (1) 
-36.014304610581021

>  <r_i_glide_erotb>  (1) 
0.84742595842419921

>  <r_i_glide_esite>  (1) 
0

>  <r_i_glide_evdw>  (1) 
-28.595900950608726

>  <r_i_glide_gscore>  (1) 
-6.3718985571451832

>  <r_i_glide_gscore_strain>  (1) 
0

>  <r_i_glide_hbond>  (1) 
-0.45599999999999996

>  <r_i_glide_ligand_efficiency>  (1) 
-0.24875982356147719

>  <r_i_glide_ligand_efficiency_ln>  (1) 
-1.4740883228605604

>  <r_i_glide_ligand_efficiency_sa>  (1) 
-0.72737813664846218

>  <r_i_glide_lipo>  (1) 
-2.2227185444676749

>  <r_i_glide_metal>  (1) 
-0

>  <r_i_glide_rewards>  (1) 
-1.9980503745754263

>  <r_lp_Energy>  (1) 
9.158987999999999

>  <s_epik_cmdline>  (1) 
J2VwaWtfcHl0aG9uJywgJy1waHQnLCAnMS4wJywgJy1waCcsICc3LjQnLCAnLXRuJywgJzgnLCAnLW1hJywgJzUwMCcsICctaW1hZScsICc8aW5maWxlLm1hZT4nLCAnLW9tYWUnLCAnPG91dGZpbGUubWFlPic=

>  <s_epik_input>  (1) 
W2NIXTFbY0hdb1tjSF1jMU4yW0NIMl1bQ0gyXVtDSF0oW0NIMl1bQ0gyXTIpW0NIMl1bQ0gyXVtDSDJdW0NASF0oW0NIMl0zKVNbQ0BASF0oW0NIMl1bT0hdKVtDQF0zKFtPSF0pQyg9TylbT0hd

>  <s_glide_docking_method>  (1) 
confgen

>  <s_i_glide_gridfile>  (1) 
gpcr_drd2_6luq_protein_autoprepared_prepared

>  <s_lp_Force_Field>  (1) 
S-OPLS

>  <s_lp_Variant>  (1) 
DiffSBDD_61_num_sample_100-1

>  <s_m_source_file>  (1) 
generated__ligand_DiffSBDD_2026-05-06_prepared.sdf

>  <GenAI_Model>  (1) 
DiffSBDD

>  <Protein>  (1) 
generic_title2

$$$$
DiffSBDD_63_num_sample_100
     RDKit          3D

  0  0  0  0  0  0  0  0  0  0999 V3000
M  V30 BEGIN CTAB
M  V30 COUNTS 56 56 0 0 1
M  V30 BEGIN ATOM
M  V30 1 C 8.504328 1.829681 -12.842971 0
M  V30 2 C 10.738114 7.137539 -6.531023 0
M  V30 3 C 11.483870 8.284653 -9.372755 0
M  V30 4 C 8.347876 5.113002 -8.614375 0
M  V30 5 C 6.760508 6.929428 -14.823956 0
M  V30 6 C 9.942224 6.973422 -7.812997 0
M  V30 7 C 11.165323 8.595052 -6.286438 0 CFG=1
M  V30 8 C 5.945308 5.773161 -14.226744 0
M  V30 9 C 6.699433 5.017087 -13.146751 0
M  V30 10 C 6.235063 2.086852 -13.894750 0
M  V30 11 C 12.542005 8.826502 -8.423964 0
M  V30 12 C 6.385787 5.150571 -11.839807 0
M  V30 13 C 5.914092 0.621853 -13.549928 0
M  V30 14 C 5.944036 7.760911 -15.819918 0
M  V30 15 C 10.058170 8.075225 -8.853215 0
M  V30 16 N 7.750417 5.369303 -9.826120 0
M  V30 17 O 11.434359 8.745484 -4.901082 0
M  V30 18 C 7.827861 4.108756 -13.638907 0
M  V30 19 C 7.582187 2.618743 -13.418202 0
M  V30 20 C 12.404725 8.969239 -7.088894 0
M  V30 21 C 7.091306 4.435376 -10.705981 0
M  V30 22 C 11.278561 10.086055 -4.459582 0
M  V30 23 C 9.178918 5.930974 -8.026570 0
M  V30 24 H 9.450988 2.231886 -12.515085 0
M  V30 25 H 8.327593 0.776106 -12.691732 0
M  V30 26 H 10.120531 6.792903 -5.698875 0
M  V30 27 H 11.610401 6.483171 -6.557216 0
M  V30 28 H 11.867503 7.362187 -9.798243 0
M  V30 29 H 11.434013 8.980468 -10.209026 0
M  V30 30 H 8.056962 4.169266 -8.183459 0
M  V30 31 H 7.652230 6.543173 -15.316711 0
M  V30 32 H 7.115182 7.577918 -14.022211 0
M  V30 33 H 10.343025 9.270574 -6.521622 0
M  V30 34 H 5.034915 6.179035 -13.790562 0
M  V30 35 H 5.635485 5.077931 -15.007034 0
M  V30 36 H 6.234846 2.206988 -14.977762 0
M  V30 37 H 5.436879 2.711204 -13.491796 0
M  V30 38 H 13.473106 9.111861 -8.881856 0
M  V30 39 H 5.578087 5.809958 -11.554968 0
M  V30 40 H 4.921632 0.350542 -13.909979 0
M  V30 41 H 5.923496 0.454232 -12.472442 0
M  V30 42 H 6.620767 -0.068920 -14.010789 0
M  V30 43 H 6.531755 8.594213 -16.203232 0
M  V30 44 H 5.050701 8.173184 -15.349648 0
M  V30 45 H 5.626538 7.157332 -16.670381 0
M  V30 46 H 9.614267 8.995474 -8.489210 0
M  V30 47 H 9.434747 7.814934 -9.710935 0
M  V30 48 H 7.434836 6.345963 -9.891534 0
M  V30 49 H 7.978045 4.259903 -14.707595 0
M  V30 50 H 8.761503 4.414651 -13.163668 0
M  V30 51 H 13.232254 9.369590 -6.521253 0
M  V30 52 H 7.860527 3.769351 -11.081538 0
M  V30 53 H 6.366288 3.841201 -10.147931 0
M  V30 54 H 11.628962 10.166444 -3.430955 0
M  V30 55 H 10.235960 10.402885 -4.482696 0
M  V30 56 H 11.834848 10.778643 -5.091710 0
M  V30 END ATOM
M  V30 BEGIN BOND
M  V30 1 1 6 2
M  V30 2 1 7 2
M  V30 3 1 8 5
M  V30 4 1 9 8
M  V30 5 1 11 3
M  V30 6 2 12 9
M  V30 7 1 13 10
M  V30 8 1 14 5
M  V30 9 1 15 3
M  V30 10 1 15 6
M  V30 11 1 16 4
M  V30 12 1 17 7
M  V30 13 1 18 9
M  V30 14 2 19 1
M  V30 15 1 19 10
M  V30 16 1 19 18
M  V30 17 1 20 7
M  V30 18 2 20 11
M  V30 19 1 21 12
M  V30 20 1 21 16
M  V30 21 1 22 17
M  V30 22 2 23 4
M  V30 23 2 23 6
M  V30 24 1 24 1
M  V30 25 1 25 1
M  V30 26 1 26 2
M  V30 27 1 27 2
M  V30 28 1 28 3
M  V30 29 1 29 3
M  V30 30 1 30 4
M  V30 31 1 31 5
M  V30 32 1 32 5
M  V30 33 1 7 33 CFG=3
M  V30 34 1 34 8
M  V30 35 1 35 8
M  V30 36 1 36 10
M  V30 37 1 37 10
M  V30 38 1 38 11
M  V30 39 1 39 12
M  V30 40 1 40 13
M  V30 41 1 41 13
M  V30 42 1 42 13
M  V30 43 1 43 14
M  V30 44 1 44 14
M  V30 45 1 45 14
M  V30 46 1 46 15
M  V30 47 1 47 15
M  V30 48 1 48 16
M  V30 49 1 49 18
M  V30 50 1 50 18
M  V30 51 1 51 20
M  V30 52 1 52 21
M  V30 53 1 53 21
M  V30 54 1 54 22
M  V30 55 1 55 22
M  V30 56 1 56 22
M  V30 END BOND
M  V30 END CTAB
M  END
>  <i_epik_Tot_Q>  (1) 
0

>  <i_epik_Tot_abs_Q>  (1) 
0

>  <i_i_glide_confnum>  (1) 
228

>  <i_i_glide_lignum>  (1) 
126

>  <i_i_glide_posenum>  (1) 
173

>  <i_i_glide_rotatable_bonds>  (1) 
9

>  <i_lp_mmshare_version>  (1) 
72125

>  <i_m_source_file_index>  (1) 
64

>  <i_f3d_flags>  (1) 
0

>  <num_sample>  (1) 
100

>  <b_lp_Chiralities_Consistent>  (1) 
1

>  <r_epik_Charging_Adjusted_Penalty>  (1) 
0

>  <r_epik_Ionization_Penalty>  (1) 
2.3151810028890752e-06

>  <r_epik_Ionization_Penalty_Charging>  (1) 
0

>  <r_epik_Ionization_Penalty_Neutral>  (1) 
2.3151810028890752e-06

>  <r_epik_State_Penalty>  (1) 
-0

>  <r_glide_ring_energy>  (1) 
0

>  <r_i_docking_score>  (1) 
-6.2161966953171301

>  <r_i_glide_ecoul>  (1) 
-4.3748939656360939

>  <r_i_glide_eff_state_penalty>  (1) 
-0

>  <r_i_glide_einternal>  (1) 
6.1953422470036159

>  <r_i_glide_emodel>  (1) 
-40.977433863196822

>  <r_i_glide_emodel_strain>  (1) 
3.9981537000334963

>  <r_i_glide_energy>  (1) 
-36.084930260609667

>  <r_i_glide_erotb>  (1) 
1.3082352225513891

>  <r_i_glide_esite>  (1) 
-0.10000000000000001

>  <r_i_glide_evdw>  (1) 
-31.710036294973573

>  <r_i_glide_gscore>  (1) 
-6.2161966953171301

>  <r_i_glide_gscore_strain>  (1) 
0

>  <r_i_glide_hbond>  (1) 
-0.16

>  <r_i_glide_ligand_efficiency>  (1) 
-0.27026942153552741

>  <r_i_glide_ligand_efficiency_ln>  (1) 
-1.5031327262829928

>  <r_i_glide_ligand_efficiency_sa>  (1) 
-0.76861028356846994

>  <r_i_glide_lipo>  (1) 
-2.8844129775937657

>  <r_i_glide_metal>  (1) 
-0

>  <r_i_glide_rewards>  (1) 
-2.1382830306806611

>  <r_lp_Energy>  (1) 
-11.675697

>  <r_lp_tautomer_probability>  (1) 
1

>  <s_epik_cmdline>  (1) 
J2VwaWtfcHl0aG9uJywgJy1waHQnLCAnMS4wJywgJy1waCcsICc3LjQnLCAnLXRuJywgJzgnLCAnLW1hJywgJzUwMCcsICctaW1hZScsICc8aW5maWxlLm1hZT4nLCAnLW9tYWUnLCAnPG91dGZpbGUubWFlPic=

>  <s_epik_input>  (1) 
W0NIM11bQ0gyXUMoPVtDSDJdKVtDSDJdQyhcW0NIMl1bQ0gyXVtDSDNdKT1bQ0hdL1tDSDJdW05IXVtDSF09Qz1DMVtDSDJdW0NAQEhdKE9bQ0gzXSlbQ0hdPVtDSF1bQ0gyXVtDSDJdMQ==

>  <s_glide_docking_method>  (1) 
confgen

>  <s_i_glide_gridfile>  (1) 
gpcr_drd2_6luq_protein_autoprepared_prepared

>  <s_lp_Force_Field>  (1) 
S-OPLS

>  <s_lp_Variant>  (1) 
DiffSBDD_63_num_sample_100-2

>  <s_m_source_file>  (1) 
generated__ligand_DiffSBDD_2026-05-06_prepared.sdf

>  <GenAI_Model>  (1) 
DiffSBDD

>  <Protein>  (1) 
generic_title2

$$$$
DiffSBDD_16_num_sample_100
     RDKit          3D

  0  0  0  0  0  0  0  0  0  0999 V3000
M  V30 BEGIN CTAB
M  V30 COUNTS 54 57 0 0 1
M  V30 BEGIN ATOM
M  V30 1 C 10.446900 6.047020 -7.533696 0
M  V30 2 C 11.073263 7.369302 -10.613841 0
M  V30 3 C 7.304256 5.282154 -18.632618 0
M  V30 4 C 7.216874 5.170426 -17.232454 0
M  V30 5 C 7.371812 6.288698 -12.802822 0
M  V30 6 C 9.948569 8.770357 -6.898083 0 CFG=1
M  V30 7 C 9.894685 6.656974 -9.947655 0 CFG=1
M  V30 8 C 6.439993 6.150723 -19.325501 0
M  V30 9 C 5.398237 6.800116 -17.215623 0
M  V30 10 C 6.263332 5.928514 -16.521345 0
M  V30 11 C 8.136245 8.569302 -12.020868 0
M  V30 12 C 5.486964 6.910146 -18.618495 0
M  V30 13 C 11.202408 8.029605 -6.424042 0 CFG=1
M  V30 14 C 6.170065 5.803165 -15.012527 0
M  V30 15 C 7.282324 6.589988 -14.308113 0
M  V30 16 N 4.634844 7.769301 -19.305763 0
M  V30 17 C 9.368401 5.333927 -10.468723 0
M  V30 18 C 8.486725 7.074976 -12.078205 0 CFG=1
M  V30 19 C 10.913110 9.401170 -5.919128 0
M  V30 20 O 10.116371 8.403428 -8.263179 0
M  V30 21 C 9.695456 7.036698 -8.477485 0 CFG=2
M  V30 22 C 10.728670 6.633115 -6.134677 0
M  V30 23 N 8.634839 6.569302 -10.691667 0 CFG=2 CHG=1
M  V30 24 H 9.903109 5.104797 -7.484165 0
M  V30 25 H 11.415018 5.816033 -7.967770 0
M  V30 26 H 11.966488 7.251754 -9.999812 0
M  V30 27 H 11.302797 6.968980 -11.600088 0
M  V30 28 H 10.881148 8.438409 -10.691696 0
M  V30 29 H 8.034551 4.700762 -19.175926 0
M  V30 30 H 7.880634 4.502472 -16.702791 0
M  V30 31 H 6.409321 6.489433 -12.328910 0
M  V30 32 H 7.546635 5.218722 -12.681499 0
M  V30 33 H 8.961366 8.515814 -6.510001 0
M  V30 34 H 6.509137 6.234372 -20.400202 0
M  V30 35 H 4.667700 7.382611 -16.672903 0
M  V30 36 H 8.223976 9.044238 -12.995211 0
M  V30 37 H 7.118256 8.726272 -11.662156 0
M  V30 38 H 8.787781 9.099435 -11.334069 0
M  V30 39 H 12.089229 8.030964 -7.059736 0
M  V30 40 H 5.192230 6.140293 -14.667239 0
M  V30 41 H 6.236902 4.745299 -14.754439 0
M  V30 42 H 8.234841 6.331734 -14.767820 0
M  V30 43 H 7.130191 7.654712 -14.486344 0
M  V30 44 H 4.801770 7.982011 -20.278410 0
M  V30 45 H 4.078774 8.443566 -18.797177 0
M  V30 46 H 8.780669 4.679072 -9.828627 0
M  V30 47 H 9.754046 4.919031 -11.398661 0
M  V30 48 H 9.410258 6.938463 -12.638097 0
M  V30 49 H 11.528956 10.217306 -6.291673 0
M  V30 50 H 10.634839 9.485353 -4.872222 0
M  V30 51 H 8.634843 6.969297 -8.232252 0
M  V30 52 H 11.502073 6.069618 -5.612044 0
M  V30 53 H 9.835833 6.639453 -5.506811 0
M  V30 54 H 7.865841 6.821023 -10.058612 0
M  V30 END ATOM
M  V30 BEGIN BOND
M  V30 1 1 4 3
M  V30 2 1 7 2 CFG=3
M  V30 3 2 8 3
M  V30 4 2 10 4
M  V30 5 1 10 9
M  V30 6 1 12 8
M  V30 7 2 12 9
M  V30 8 1 13 6
M  V30 9 1 14 10
M  V30 10 1 15 5
M  V30 11 1 15 14
M  V30 12 1 16 12
M  V30 13 1 17 7
M  V30 14 1 18 5
M  V30 15 1 18 11
M  V30 16 1 19 6
M  V30 17 1 19 13
M  V30 18 1 20 6
M  V30 19 1 21 1
M  V30 20 1 21 7
M  V30 21 1 21 20
M  V30 22 1 22 1
M  V30 23 1 22 13
M  V30 24 1 23 7
M  V30 25 1 23 17
M  V30 26 1 23 18
M  V30 27 1 24 1
M  V30 28 1 25 1
M  V30 29 1 26 2
M  V30 30 1 27 2
M  V30 31 1 28 2
M  V30 32 1 29 3
M  V30 33 1 30 4
M  V30 34 1 31 5
M  V30 35 1 32 5
M  V30 36 1 6 33 CFG=1
M  V30 37 1 34 8
M  V30 38 1 35 9
M  V30 39 1 36 11
M  V30 40 1 37 11
M  V30 41 1 38 11
M  V30 42 1 13 39 CFG=3
M  V30 43 1 40 14
M  V30 44 1 41 14
M  V30 45 1 42 15
M  V30 46 1 43 15
M  V30 47 1 44 16
M  V30 48 1 45 16
M  V30 49 1 46 17
M  V30 50 1 47 17
M  V30 51 1 18 48 CFG=3
M  V30 52 1 49 19
M  V30 53 1 50 19
M  V30 54 1 21 51 CFG=1
M  V30 55 1 52 22
M  V30 56 1 53 22
M  V30 57 1 23 54 CFG=1
M  V30 END BOND
M  V30 END CTAB
M  END
>  <i_epik_Tot_Q>  (1) 
1

>  <i_epik_Tot_abs_Q>  (1) 
1

>  <i_i_glide_confnum>  (1) 
84

>  <i_i_glide_lignum>  (1) 
27

>  <i_i_glide_posenum>  (1) 
335

>  <i_i_glide_rotatable_bonds>  (1) 
6

>  <i_lp_mmshare_version>  (1) 
72125

>  <i_m_source_file_index>  (1) 
17

>  <i_f3d_flags>  (1) 
0

>  <num_sample>  (1) 
100

>  <b_lp_Chiralities_Consistent>  (1) 
1

>  <r_epik_Charging_Adjusted_Penalty>  (1) 
0.11272327168216571

>  <r_epik_Ionization_Penalty>  (1) 
0.057493963086777844

>  <r_epik_Ionization_Penalty_Charging>  (1) 
0.056361635841082856

>  <r_epik_Ionization_Penalty_Neutral>  (1) 
0.0011323272456949893

>  <r_epik_State_Penalty>  (1) 
0.056361635841082856

>  <r_glide_ring_energy>  (1) 
0

>  <r_i_docking_score>  (1) 
-6.2135474432537627

>  <r_i_glide_ecoul>  (1) 
-7.7052121414268457

>  <r_i_glide_eff_state_penalty>  (1) 
0.056361635841082856

>  <r_i_glide_einternal>  (1) 
5.3208270171201324

>  <r_i_glide_emodel>  (1) 
-51.751661768578209

>  <r_i_glide_emodel_strain>  (1) 
0.0043355275016523365

>  <r_i_glide_energy>  (1) 
-36.507887871332741

>  <r_i_glide_erotb>  (1) 
1.1214719841998091

>  <r_i_glide_esite>  (1) 
-0.083005264070169726

>  <r_i_glide_evdw>  (1) 
-28.802675729905896

>  <r_i_glide_gscore>  (1) 
-6.2699090790948455

>  <r_i_glide_gscore_strain>  (1) 
0

>  <r_i_glide_hbond>  (1) 
-0.20000000000000001

>  <r_i_glide_ligand_efficiency>  (1) 
-0.27015423666320709

>  <r_i_glide_ligand_efficiency_ln>  (1) 
-1.5024921131119808

>  <r_i_glide_ligand_efficiency_sa>  (1) 
-0.76828271311349983

>  <r_i_glide_lipo>  (1) 
-2.3986639083214238

>  <r_i_glide_metal>  (1) 
-0

>  <r_i_glide_rewards>  (1) 
-2.1137962831937389

>  <r_lp_Energy>  (1) 
55.325258999999996

>  <s_epik_cmdline>  (1) 
J2VwaWtfcHl0aG9uJywgJy1waHQnLCAnMS4wJywgJy1waCcsICc3LjQnLCAnLXRuJywgJzgnLCAnLW1hJywgJzUwMCcsICctaW1hZScsICc8aW5maWxlLm1hZT4nLCAnLW9tYWUnLCAnPG91dGZpbGUubWFlPic=

>  <s_epik_input>  (1) 
W0NIXTEyW0NIXShbQ0gyXTEpW0NIMl1bQ0gyXVtDQEBIXShPMilbQ0BAXTMoW0NIM10pW0NIMl1OM1tDQEhdKFtDSDNdKVtDSDJdW0NIMl1bQ0gyXWM0W2NIXVtjSF1bY0hdYyhbY0hdNClbTkgyXQ==

>  <s_glide_docking_method>  (1) 
confgen

>  <s_i_glide_gridfile>  (1) 
gpcr_drd2_6luq_protein_autoprepared_prepared

>  <s_lp_Force_Field>  (1) 
S-OPLS

>  <s_lp_Variant>  (1) 
DiffSBDD_16_num_sample_100-2

>  <s_m_source_file>  (1) 
generated__ligand_DiffSBDD_2026-05-06_prepared.sdf

>  <GenAI_Model>  (1) 
DiffSBDD

>  <Protein>  (1) 
generic_title2

$$$$
DiffSBDD_22_num_sample_100
     RDKit          3D

  0  0  0  0  0  0  0  0  0  0999 V3000
M  V30 BEGIN CTAB
M  V30 COUNTS 45 47 0 0 1
M  V30 BEGIN ATOM
M  V30 1 C 5.960013 6.969359 -14.492113 0
M  V30 2 C 6.954387 5.781890 -17.914225 0
M  V30 3 C 7.408100 6.110762 -12.720743 0
M  V30 4 C 11.648382 8.960648 -4.663117 0
M  V30 5 O 9.434284 4.568614 -11.290142 0
M  V30 6 C 5.035064 6.574995 -18.911604 0
M  V30 7 N 6.198339 6.255339 -16.857385 0
M  V30 8 C 8.745386 5.440567 -9.169088 0
M  V30 9 C 7.727838 5.363349 -15.037765 0
M  V30 10 C 8.674056 5.327539 -10.700357 0
M  V30 11 O 6.770187 5.581462 -20.214390 0 CHG=-1
M  V30 12 C 10.865754 6.857970 -6.441433 0
M  V30 13 O 11.834838 10.332657 -6.592285 0
M  V30 14 N 9.834823 6.256730 -8.579685 0
M  V30 15 N 7.734395 6.097171 -11.307953 0
M  V30 16 C 9.606510 6.340004 -7.137998 0
M  V30 17 C 11.170278 8.329107 -8.437734 0
M  V30 18 C 9.947636 7.628897 -9.081726 0
M  V30 19 C 6.342580 6.928117 -13.139187 0
M  V30 20 O 8.077847 5.288849 -17.814398 0
M  V30 21 C 11.569186 9.220118 -6.162533 0
M  V30 22 C 6.644650 6.193249 -15.457607 0
M  V30 23 S 4.646978 6.969119 -17.276002 0
M  V30 24 N 11.206729 8.185624 -6.968313 0
M  V30 25 C 8.106982 5.323922 -13.680159 0
M  V30 26 C 6.223069 5.974668 -19.158602 0
M  V30 27 H 5.138660 7.602358 -14.787071 0
M  V30 28 H 12.158666 8.034821 -4.397769 0
M  V30 29 H 12.185389 9.770403 -4.170560 0
M  V30 30 H 10.634923 8.969514 -4.291666 0
M  V30 31 H 4.322143 6.820952 -19.683104 0
M  V30 32 H 7.774983 5.769298 -8.798076 0
M  V30 33 H 8.852260 4.426333 -8.789756 0
M  V30 34 H 8.258502 4.745618 -15.730491 0
M  V30 35 H 10.651044 6.822172 -5.375236 0
M  V30 36 H 11.701672 6.179075 -6.617136 0
M  V30 37 H 7.179305 6.708678 -10.707833 0
M  V30 38 H 8.745426 6.973389 -6.910232 0
M  V30 39 H 9.367538 5.369436 -6.729129 0
M  V30 40 H 11.181914 9.369306 -8.761146 0
M  V30 41 H 12.085699 7.886345 -8.831793 0
M  V30 42 H 10.069203 7.634351 -10.165320 0
M  V30 43 H 9.035481 8.188816 -8.864785 0
M  V30 44 H 5.807372 7.524582 -12.413932 0
M  V30 45 H 8.919040 4.688076 -13.396401 0
M  V30 END ATOM
M  V30 BEGIN BOND
M  V30 1 1 7 2
M  V30 2 2 10 5
M  V30 3 1 10 8
M  V30 4 1 14 8
M  V30 5 1 15 3
M  V30 6 1 15 10
M  V30 7 1 16 12
M  V30 8 1 16 14
M  V30 9 1 18 14
M  V30 10 1 18 17
M  V30 11 2 19 1
M  V30 12 1 19 3
M  V30 13 2 20 2
M  V30 14 1 21 4
M  V30 15 2 21 13
M  V30 16 1 22 1
M  V30 17 1 22 7
M  V30 18 2 22 9
M  V30 19 1 23 6
M  V30 20 1 23 7
M  V30 21 1 24 12
M  V30 22 1 24 17
M  V30 23 1 24 21
M  V30 24 2 25 3
M  V30 25 1 25 9
M  V30 26 1 26 2
M  V30 27 2 26 6
M  V30 28 1 26 11
M  V30 29 1 27 1
M  V30 30 1 28 4
M  V30 31 1 29 4
M  V30 32 1 30 4
M  V30 33 1 31 6
M  V30 34 1 32 8
M  V30 35 1 33 8
M  V30 36 1 34 9
M  V30 37 1 35 12
M  V30 38 1 36 12
M  V30 39 1 37 15
M  V30 40 1 38 16
M  V30 41 1 39 16
M  V30 42 1 40 17
M  V30 43 1 41 17
M  V30 44 1 42 18
M  V30 45 1 43 18
M  V30 46 1 44 19
M  V30 47 1 45 25
M  V30 END BOND
M  V30 END CTAB
M  END
>  <i_epik_Tot_Q>  (1) 
-1

>  <i_epik_Tot_abs_Q>  (1) 
1

>  <i_i_glide_confnum>  (1) 
237

>  <i_i_glide_lignum>  (1) 
36

>  <i_i_glide_posenum>  (1) 
340

>  <i_i_glide_rotatable_bonds>  (1) 
6

>  <i_lp_mmshare_version>  (1) 
72125

>  <i_m_source_file_index>  (1) 
23

>  <i_f3d_flags>  (1) 
0

>  <num_sample>  (1) 
100

>  <b_lp_Chiralities_Consistent>  (1) 
1

>  <r_epik_Charging_Adjusted_Penalty>  (1) 
0.47379864770937913

>  <r_epik_Ionization_Penalty>  (1) 
0.47380121227694488

>  <r_epik_Ionization_Penalty_Charging>  (1) 
5.626758328864977e-05

>  <r_epik_Ionization_Penalty_Neutral>  (1) 
0.47374494469365624

>  <r_epik_State_Penalty>  (1) 
0.47374238012609049

>  <r_glide_ring_energy>  (1) 
0.020434014490612575

>  <r_i_docking_score>  (1) 
-6.2111169928534764

>  <r_i_glide_ecoul>  (1) 
-3.8391692813173197

>  <r_i_glide_eff_state_penalty>  (1) 
0.47374238012609049

>  <r_i_glide_einternal>  (1) 
8.1849067170957639

>  <r_i_glide_emodel>  (1) 
-54.935074825005657

>  <r_i_glide_emodel_strain>  (1) 
0.028765649873733423

>  <r_i_glide_energy>  (1) 
-42.533945921433414

>  <r_i_glide_erotb>  (1) 
0.68631235361621001

>  <r_i_glide_esite>  (1) 
-0.1301053820598089

>  <r_i_glide_evdw>  (1) 
-38.694776640116096

>  <r_i_glide_gscore>  (1) 
-6.6848593729795667

>  <r_i_glide_gscore_strain>  (1) 
0

>  <r_i_glide_hbond>  (1) 
-0.16

>  <r_i_glide_ligand_efficiency>  (1) 
-0.23888911510974908

>  <r_i_glide_ligand_efficiency_ln>  (1) 
-1.4586604454344905

>  <r_i_glide_ligand_efficiency_sa>  (1) 
-0.70770806429794764

>  <r_i_glide_lipo>  (1) 
-2.0929217125426645

>  <r_i_glide_metal>  (1) 
-0

>  <r_i_glide_rewards>  (1) 
-2.4775304077899003

>  <r_lp_Energy>  (1) 
63.227018999999999

>  <r_lp_tautomer_probability>  (1) 
1

>  <s_epik_cmdline>  (1) 
J2VwaWtfcHl0aG9uJywgJy1waHQnLCAnMS4wJywgJy1waCcsICc3LjQnLCAnLXRuJywgJzgnLCAnLW1hJywgJzUwMCcsICctaW1hZScsICc8aW5maWxlLm1hZT4nLCAnLW9tYWUnLCAnPG91dGZpbGUubWFlPic=

>  <s_epik_input>  (1) 
Tz1DMVtDSDJdU04oQzE9TyljKFtjSF1bY0hdMilbY0hdW2NIXWMyW05IXUMoPU8pW0NIMl1OM1tDSDJdW0NIMl1OKFtDSDJdW0NIMl0zKUMoPU8pW0NIM10=

>  <s_glide_docking_method>  (1) 
confgen

>  <s_i_glide_gridfile>  (1) 
gpcr_drd2_6luq_protein_autoprepared_prepared

>  <s_lp_Force_Field>  (1) 
S-OPLS

>  <s_lp_Variant>  (1) 
DiffSBDD_22_num_sample_100-2

>  <s_m_source_file>  (1) 
generated__ligand_DiffSBDD_2026-05-06_prepared.sdf

>  <GenAI_Model>  (1) 
DiffSBDD

>  <Protein>  (1) 
generic_title2

$$$$
DiffSBDD_25_num_sample_100
     RDKit          3D

  0  0  0  0  0  0  0  0  0  0999 V3000
M  V30 BEGIN CTAB
M  V30 COUNTS 66 69 0 0 1
M  V30 BEGIN ATOM
M  V30 1 C 6.060532 6.511734 -19.215992 0
M  V30 2 C 11.706856 8.402058 -8.574734 0
M  V30 3 C 9.520347 7.012595 -8.989106 0
M  V30 4 C 8.360991 5.039666 -13.173626 0 CFG=2
M  V30 5 C 11.739152 8.217314 -4.261535 0
M  V30 6 O 10.128680 8.389026 -5.992707 0
M  V30 7 C 10.331476 6.996990 -5.804458 0 CFG=1
M  V30 8 C 11.121893 9.136617 -5.320802 0 CFG=2
M  V30 9 F 12.558022 8.233349 -9.585772 0
M  V30 10 C 12.091882 9.778593 -6.321443 0
M  V30 11 C 5.647743 6.513946 -15.138260 0
M  V30 12 C 11.037829 6.355704 -7.000357 0
M  V30 13 F 10.881259 9.369823 -8.925704 0
M  V30 14 C 10.092855 6.989887 -12.668961 0 CFG=1
M  V30 15 N 5.649605 6.832906 -16.482249 0
M  V30 16 C 10.927805 7.054739 -8.362463 0 CFG=2
M  V30 17 O 7.834671 7.444679 -13.320545 0
M  V30 18 C 5.839307 4.878731 -12.534748 0
M  V30 19 C 10.559911 7.215101 -11.255931 0
M  V30 20 F 10.929012 6.169309 -13.286276 0
M  V30 21 C 6.894732 4.735449 -13.648920 0 CFG=1
M  V30 22 C 8.326067 6.729396 -11.144011 0
M  V30 23 C 6.533185 5.965623 -16.987167 0
M  V30 24 C 8.912907 3.943682 -12.217835 0
M  V30 25 C 11.147978 6.838989 -4.518094 0
M  V30 26 O 7.097607 5.111751 -16.079508 0
M  V30 27 O 8.689016 2.630344 -12.692681 0
M  V30 28 C 12.636311 8.889415 -7.461494 0
M  V30 29 N 9.571887 6.545999 -10.400466 0 CFG=2 CHG=1
M  V30 30 C 6.504109 5.477418 -14.900796 0
M  V30 31 O 6.906444 5.857447 -18.276859 0
M  V30 32 C 8.624846 6.497311 -12.622169 0 CFG=1
M  V30 33 H 6.435371 6.352500 -20.227961 0
M  V30 34 H 5.047546 6.107002 -19.168633 0
M  V30 35 H 6.013037 7.589176 -19.051308 0
M  V30 36 H 9.034394 7.982745 -8.903311 0
M  V30 37 H 8.878106 6.319231 -8.444666 0
M  V30 38 H 8.952877 4.943300 -14.084982 0
M  V30 39 H 12.827344 8.215205 -4.287152 0
M  V30 40 H 11.442613 8.563090 -3.270013 0
M  V30 41 H 9.357182 6.525430 -5.698042 0
M  V30 42 H 10.616083 9.952648 -4.801975 0
M  V30 43 H 12.942447 10.166406 -5.762018 0
M  V30 44 H 11.619190 10.665433 -6.735659 0
M  V30 45 H 5.034697 7.058460 -14.440199 0
M  V30 46 H 10.608469 5.369003 -7.118012 0
M  V30 47 H 12.083242 6.151085 -6.777906 0
M  V30 48 H 10.201212 7.981977 -13.090944 0
M  V30 49 H 11.445638 6.319252 -8.952902 0
M  V30 50 H 6.927658 7.188410 -13.259324 0
M  V30 51 H 4.867692 4.529168 -12.884391 0
M  V30 52 H 6.089472 4.280983 -11.657751 0
M  V30 53 H 5.717204 5.913832 -12.217078 0
M  V30 54 H 10.516409 8.285803 -11.056962 0
M  V30 55 H 11.591904 6.908842 -11.136268 0
M  V30 56 H 6.854427 3.685946 -13.939144 0
M  V30 57 H 8.218959 7.814082 -11.089539 0
M  V30 58 H 7.475344 6.182417 -10.732441 0
M  V30 59 H 8.460970 4.014359 -11.229059 0
M  V30 60 H 9.986277 4.076375 -12.081248 0
M  V30 61 H 10.517787 6.510889 -3.693977 0
M  V30 62 H 11.920657 6.075403 -4.600858 0
M  V30 63 H 9.043378 2.007995 -12.065199 0
M  V30 64 H 13.035656 7.988099 -7.094454 0
M  V30 65 H 13.519682 9.365926 -7.881518 0
M  V30 66 H 9.780294 5.559047 -10.398190 0
M  V30 END ATOM
M  V30 BEGIN BOND
M  V30 1 1 7 6
M  V30 2 1 8 5
M  V30 3 1 8 6
M  V30 4 1 9 2
M  V30 5 1 10 8
M  V30 6 1 12 7
M  V30 7 1 13 2
M  V30 8 1 15 11
M  V30 9 1 16 2
M  V30 10 1 16 3
M  V30 11 1 16 12
M  V30 12 1 19 14
M  V30 13 1 20 14
M  V30 14 1 21 4
M  V30 15 1 21 18
M  V30 16 2 23 15
M  V30 17 1 24 4
M  V30 18 1 25 5
M  V30 19 1 25 7
M  V30 20 1 26 23
M  V30 21 1 27 24
M  V30 22 1 28 2
M  V30 23 1 28 10
M  V30 24 1 29 3
M  V30 25 1 29 19
M  V30 26 1 29 22
M  V30 27 2 30 11
M  V30 28 1 30 21
M  V30 29 1 30 26
M  V30 30 1 31 1
M  V30 31 1 31 23
M  V30 32 1 32 4
M  V30 33 1 32 14
M  V30 34 1 32 17 CFG=3
M  V30 35 1 32 22
M  V30 36 1 33 1
M  V30 37 1 34 1
M  V30 38 1 35 1
M  V30 39 1 36 3
M  V30 40 1 37 3
M  V30 41 1 4 38 CFG=3
M  V30 42 1 39 5
M  V30 43 1 40 5
M  V30 44 1 7 41 CFG=1
M  V30 45 1 8 42 CFG=1
M  V30 46 1 43 10
M  V30 47 1 44 10
M  V30 48 1 45 11
M  V30 49 1 46 12
M  V30 50 1 47 12
M  V30 51 1 14 48 CFG=3
M  V30 52 1 16 49 CFG=3
M  V30 53 1 50 17
M  V30 54 1 51 18
M  V30 55 1 52 18
M  V30 56 1 53 18
M  V30 57 1 54 19
M  V30 58 1 55 19
M  V30 59 1 21 56 CFG=3
M  V30 60 1 57 22
M  V30 61 1 58 22
M  V30 62 1 59 24
M  V30 63 1 60 24
M  V30 64 1 61 25
M  V30 65 1 62 25
M  V30 66 1 63 27
M  V30 67 1 64 28
M  V30 68 1 65 28
M  V30 69 1 29 66 CFG=1
M  V30 END BOND
M  V30 END CTAB
M  END
>  <i_epik_Tot_Q>  (1) 
1

>  <i_epik_Tot_abs_Q>  (1) 
1

>  <i_i_glide_confnum>  (1) 
281

>  <i_i_glide_lignum>  (1) 
38

>  <i_i_glide_posenum>  (1) 
64

>  <i_i_glide_rotatable_bonds>  (1) 
9

>  <i_lp_mmshare_version>  (1) 
72125

>  <i_m_source_file_index>  (1) 
26

>  <i_f3d_flags>  (1) 
0

>  <num_sample>  (1) 
100

>  <b_lp_Chiralities_Consistent>  (1) 
1

>  <r_epik_Charging_Adjusted_Penalty>  (1) 
0.21543991348680042

>  <r_epik_Ionization_Penalty>  (1) 
0.10772808098718631

>  <r_epik_Ionization_Penalty_Charging>  (1) 
0.10771995674340021

>  <r_epik_Ionization_Penalty_Neutral>  (1) 
8.124243786105112e-06

>  <r_epik_State_Penalty>  (1) 
0.10771995674340022

>  <r_glide_ring_energy>  (1) 
0

>  <r_i_docking_score>  (1) 
-6.2052723038850424

>  <r_i_glide_ecoul>  (1) 
-5.6567978726293662

>  <r_i_glide_eff_state_penalty>  (1) 
0.10771995674340022

>  <r_i_glide_einternal>  (1) 
11.508153766335084

>  <r_i_glide_emodel>  (1) 
-29.729940760666615

>  <r_i_glide_emodel_strain>  (1) 
4.170076495139682

>  <r_i_glide_energy>  (1) 
-24.809489703211408

>  <r_i_glide_erotb>  (1) 
0.56277696399540145

>  <r_i_glide_esite>  (1) 
-0.09169368144046125

>  <r_i_glide_evdw>  (1) 
-19.152691830582043

>  <r_i_glide_gscore>  (1) 
-6.3129922606284428

>  <r_i_glide_gscore_strain>  (1) 
0.042519123784920509

>  <r_i_glide_hbond>  (1) 
-0.32000000000000001

>  <r_i_glide_ligand_efficiency>  (1) 
-0.19391475949640757

>  <r_i_glide_ligand_efficiency_ln>  (1) 
-1.3895296181744063

>  <r_i_glide_ligand_efficiency_sa>  (1) 
-0.61564098643351561

>  <r_i_glide_lipo>  (1) 
-3.2184062866322676

>  <r_i_glide_metal>  (1) 
-0

>  <r_i_glide_rewards>  (1) 
-1.4820341079125279

>  <r_lp_Energy>  (1) 
39.515628999999997

>  <s_epik_cmdline>  (1) 
J2VwaWtfcHl0aG9uJywgJy1waHQnLCAnMS4wJywgJy1waCcsICc3LjQnLCAnLXRuJywgJzgnLCAnLW1hJywgJzUwMCcsICctaW1hZScsICc8aW5maWxlLm1hZT4nLCAnLW9tYWUnLCAnPG91dGZpbGUubWFlPic=

>  <s_epik_input>  (1) 
W0NIM11PYzFuW2NIXWMobzEpW0NASF0oW0NIM10pW0NASF0oW0NIMl1bT0hdKVtDQF0yKFtPSF0pW0NASF0oRilbQ0gyXU4oW0NIMl0yKVtDSDJdW0NASF0oW0NIMl0zKUMoRikoRilbQ0gyXVtDSDJdW0NASF0oW0NIMl1bQ0gyXTQpT1tDQEBIXTM0

>  <s_glide_docking_method>  (1) 
confgen

>  <s_i_glide_gridfile>  (1) 
gpcr_drd2_6luq_protein_autoprepared_prepared

>  <s_lp_Force_Field>  (1) 
S-OPLS

>  <s_lp_Variant>  (1) 
DiffSBDD_25_num_sample_100-1

>  <s_m_source_file>  (1) 
generated__ligand_DiffSBDD_2026-05-06_prepared.sdf

>  <GenAI_Model>  (1) 
DiffSBDD

>  <Protein>  (1) 
generic_title2

$$$$
DiffSBDD_91_num_sample_100
     RDKit          3D

  0  0  0  0  0  0  0  0  0  0999 V3000
M  V30 BEGIN CTAB
M  V30 COUNTS 91 94 0 0 1
M  V30 BEGIN ATOM
M  V30 1 C 12.471174 6.899840 -19.410424 0
M  V30 2 C 11.355122 7.583796 -19.927464 0
M  V30 3 O 11.667406 4.534008 -17.091550 0 CHG=-1
M  V30 4 C 7.307493 5.087587 -15.600982 0 CFG=2
M  V30 5 O 13.528665 5.459595 -16.291606 0
M  V30 6 F 5.930893 7.033206 -15.396340 0
M  V30 7 C 10.135105 8.145118 -5.877020 0
M  V30 8 C 12.048777 5.047424 -20.946442 0
M  V30 9 C 12.736283 1.556602 -17.798690 0 CFG=2
M  V30 10 F 6.078988 3.991596 -13.903447 0
M  V30 11 C 7.985543 4.776290 -18.531478 0 CFG=2
M  V30 12 C 8.383869 4.010387 -19.794687 0
M  V30 13 C 12.818089 5.625992 -19.914922 0
M  V30 14 O 8.859059 0.253523 -17.234199 0
M  V30 15 C 9.817390 5.832355 -9.010073 0
M  V30 16 C 8.175944 3.728376 -17.413677 0 CFG=2
M  V30 17 C 12.907905 4.705450 -17.074148 0
M  V30 18 C 7.970982 2.344007 -18.070826 0 CFG=1
M  V30 19 C 10.585208 7.002205 -20.951868 0
M  V30 20 C 11.198674 6.380435 -6.305337 0
M  V30 21 C 6.548744 5.331050 -18.626903 0
M  V30 22 C 14.023583 4.877791 -19.342998 0
M  V30 23 O 15.982159 4.453242 -17.109255 0
M  V30 24 C 7.831670 2.604597 -19.581307 0
M  V30 25 F 8.239335 3.927072 -13.812934 0
M  V30 26 S 9.810173 6.969279 -11.891673 0
M  V30 27 C 9.382924 6.966726 -8.084072 0
M  V30 28 C 7.191037 4.702406 -14.106424 0
M  V30 29 N 8.734124 5.471057 -9.922231 0
M  V30 30 F 11.407349 8.121018 -7.864043 0
M  V30 31 N 7.519783 5.528680 -11.784039 0
M  V30 32 C 15.112005 3.429906 -17.555568 0
M  V30 33 Cl 9.214290 7.838922 -21.579578 0
M  V30 34 C 10.503923 7.425579 -7.171303 0
M  V30 35 C 6.129165 5.943604 -16.138677 0 CFG=1
M  V30 36 O 7.298128 3.848916 -16.303658 0
M  V30 37 C 13.858577 0.517239 -18.013102 0
M  V30 38 C 10.320300 6.804522 -5.143132 0
M  V30 39 C 10.933705 5.736295 -21.464410 0
M  V30 40 C 9.089988 1.339855 -17.763395 0
M  V30 41 C 13.745787 3.924993 -18.130981 0 CFG=1
M  V30 42 C 11.406501 0.871006 -18.162443 0
M  V30 43 O 10.309916 1.771632 -18.147429 0
M  V30 44 C 7.158061 5.910888 -13.152343 0
M  V30 45 N 12.916384 2.783337 -18.630067 0 CHG=1
M  V30 46 C 6.261923 6.427886 -17.592265 0
M  V30 47 F 8.444070 5.769299 -15.735834 0
M  V30 48 C 8.662381 5.963102 -11.185085 0
M  V30 49 H 13.057459 7.347102 -18.620452 0
M  V30 50 H 11.088360 8.554804 -19.535783 0
M  V30 51 H 10.867739 8.896724 -5.579179 0
M  V30 52 H 9.119943 8.542536 -5.891668 0
M  V30 53 H 12.311179 4.076491 -21.338729 0
M  V30 54 H 12.690151 1.838569 -16.745392 0
M  V30 55 H 8.674549 5.611588 -18.393046 0
M  V30 56 H 9.471432 3.960080 -19.853730 0
M  V30 57 H 8.027121 4.472776 -20.715115 0
M  V30 58 H 10.071275 4.933039 -8.451426 0
M  V30 59 H 10.730717 6.168780 -9.491672 0
M  V30 60 H 9.191585 3.809585 -17.031823 0
M  V30 61 H 7.037812 1.908807 -17.711447 0
M  V30 62 H 11.068270 5.369301 -6.645875 0
M  V30 63 H 12.234834 6.570420 -6.124356 0
M  V30 64 H 6.410419 5.773787 -19.613926 0
M  V30 65 H 5.812749 4.529790 -18.553830 0
M  V30 66 H 14.754725 5.634957 -19.056696 0
M  V30 67 H 14.499089 4.319523 -20.150154 0
M  V30 68 H 15.441445 5.045098 -16.589393 0
M  V30 69 H 8.340933 1.869734 -20.206573 0
M  V30 70 H 6.776290 2.577460 -19.854668 0
M  V30 71 H 9.034841 7.814273 -8.675101 0
M  V30 72 H 8.530742 6.631278 -7.493672 0
M  V30 73 H 7.990814 4.879695 -9.582787 0
M  V30 74 H 6.892439 4.931551 -11.266952 0
M  V30 75 H 15.646019 2.833890 -18.295830 0
M  V30 76 H 14.939459 2.802119 -16.681190 0
M  V30 77 H 5.209794 5.376353 -16.034169 0
M  V30 78 H 13.605089 -0.426314 -17.527380 0
M  V30 79 H 14.006304 0.302332 -19.072023 0
M  V30 80 H 14.818017 0.810787 -17.595713 0
M  V30 81 H 10.847299 6.855505 -4.191161 0
M  V30 82 H 9.434801 6.172716 -5.091157 0
M  V30 83 H 10.342767 5.292084 -22.252332 0
M  V30 84 H 11.468376 0.442414 -19.163534 0
M  V30 85 H 11.248237 0.034935 -17.479621 0
M  V30 86 H 7.748408 6.726742 -13.563744 0
M  V30 87 H 6.143881 6.307557 -13.107398 0
M  V30 88 H 11.997639 3.215765 -18.658525 0
M  V30 89 H 7.034849 7.190793 -17.653604 0
M  V30 90 H 5.336122 6.933875 -17.869409 0
M  V30 91 H 13.194651 2.532828 -19.565585 0
M  V30 END ATOM
M  V30 BEGIN BOND
M  V30 1 2 2 1
M  V30 2 1 12 11
M  V30 3 1 13 1
M  V30 4 2 13 8
M  V30 5 1 16 11
M  V30 6 1 17 3
M  V30 7 2 17 5
M  V30 8 1 18 16
M  V30 9 1 19 2
M  V30 10 1 21 11
M  V30 11 1 22 13
M  V30 12 1 24 12
M  V30 13 1 24 18
M  V30 14 1 27 15
M  V30 15 1 28 4
M  V30 16 1 28 10
M  V30 17 1 28 25
M  V30 18 1 29 15
M  V30 19 1 32 23
M  V30 20 1 33 19
M  V30 21 1 34 7
M  V30 22 1 34 20
M  V30 23 1 34 27
M  V30 24 1 34 30
M  V30 25 1 35 4
M  V30 26 1 35 6
M  V30 27 1 36 4
M  V30 28 1 36 16
M  V30 29 1 37 9
M  V30 30 1 38 7
M  V30 31 1 38 20
M  V30 32 1 39 8
M  V30 33 2 39 19
M  V30 34 2 40 14
M  V30 35 1 40 18
M  V30 36 1 41 17
M  V30 37 1 41 22 CFG=3
M  V30 38 1 41 32
M  V30 39 1 42 9
M  V30 40 1 43 40
M  V30 41 1 43 42
M  V30 42 1 44 28
M  V30 43 1 44 31
M  V30 44 1 45 9
M  V30 45 1 45 41
M  V30 46 1 46 21
M  V30 47 1 46 35
M  V30 48 1 4 47 CFG=1
M  V30 49 2 48 26
M  V30 50 1 48 29
M  V30 51 1 48 31
M  V30 52 1 49 1
M  V30 53 1 50 2
M  V30 54 1 51 7
M  V30 55 1 52 7
M  V30 56 1 53 8
M  V30 57 1 9 54 CFG=1
M  V30 58 1 11 55 CFG=1
M  V30 59 1 56 12
M  V30 60 1 57 12
M  V30 61 1 58 15
M  V30 62 1 59 15
M  V30 63 1 16 60 CFG=1
M  V30 64 1 18 61 CFG=1
M  V30 65 1 62 20
M  V30 66 1 63 20
M  V30 67 1 64 21
M  V30 68 1 65 21
M  V30 69 1 66 22
M  V30 70 1 67 22
M  V30 71 1 68 23
M  V30 72 1 69 24
M  V30 73 1 70 24
M  V30 74 1 71 27
M  V30 75 1 72 27
M  V30 76 1 73 29
M  V30 77 1 74 31
M  V30 78 1 75 32
M  V30 79 1 76 32
M  V30 80 1 35 77 CFG=3
M  V30 81 1 78 37
M  V30 82 1 79 37
M  V30 83 1 80 37
M  V30 84 1 81 38
M  V30 85 1 82 38
M  V30 86 1 83 39
M  V30 87 1 84 42
M  V30 88 1 85 42
M  V30 89 1 86 44
M  V30 90 1 87 44
M  V30 91 1 88 45
M  V30 92 1 89 46
M  V30 93 1 90 46
M  V30 94 1 91 45
M  V30 END BOND
M  V30 END CTAB
M  END
>  <i_epik_Tot_Q>  (1) 
0

>  <i_epik_Tot_abs_Q>  (1) 
2

>  <i_i_glide_confnum>  (1) 
7553

>  <i_i_glide_lignum>  (1) 
185

>  <i_i_glide_posenum>  (1) 
311

>  <i_i_glide_rotatable_bonds>  (1) 
19

>  <i_lp_mmshare_version>  (1) 
72125

>  <i_m_source_file_index>  (1) 
92

>  <i_f3d_flags>  (1) 
0

>  <num_sample>  (1) 
100

>  <b_lp_Chiralities_Consistent>  (1) 
1

>  <r_epik_Charging_Adjusted_Penalty>  (1) 
0.009474757763754324

>  <r_epik_Ionization_Penalty>  (1) 
0.0047391049881846635

>  <r_epik_Ionization_Penalty_Charging>  (1) 
0.0047383734809194307

>  <r_epik_Ionization_Penalty_Neutral>  (1) 
7.3150726523264564e-07

>  <r_epik_State_Penalty>  (1) 
0.0047363842828348933

>  <r_glide_ring_energy>  (1) 
0.6799158544913404

>  <r_i_docking_score>  (1) 
-6.1990232281853794

>  <r_i_glide_ecoul>  (1) 
-3.0015858304845482

>  <r_i_glide_eff_state_penalty>  (1) 
0.0047363842828348933

>  <r_i_glide_einternal>  (1) 
7.9423001551132124

>  <r_i_glide_emodel>  (1) 
-58.430960678274545

>  <r_i_glide_emodel_strain>  (1) 
0.89145515992368018

>  <r_i_glide_energy>  (1) 
-43.445583697745676

>  <r_i_glide_erotb>  (1) 
0.42390194326956793

>  <r_i_glide_esite>  (1) 
-0.17182333213892986

>  <r_i_glide_evdw>  (1) 
-40.443997867261125

>  <r_i_glide_gscore>  (1) 
-6.2037596124682146

>  <r_i_glide_gscore_strain>  (1) 
0

>  <r_i_glide_hbond>  (1) 
-0.24165813380981235

>  <r_i_glide_ligand_efficiency>  (1) 
-0.12914631725386208

>  <r_i_glide_ligand_efficiency_ln>  (1) 
-1.2725862090897395

>  <r_i_glide_ligand_efficiency_sa>  (1) 
-0.46934886514085095

>  <r_i_glide_lipo>  (1) 
-2.076397045357032

>  <r_i_glide_metal>  (1) 
-0

>  <r_i_glide_rewards>  (1) 
-1.6653452764962702

>  <r_lp_Energy>  (1) 
54.172243999999999

>  <s_epik_Chemistry_Notes>  (1) 
This compound has an ester and may undergo hydrolysis at high or low pH.

>  <s_epik_cmdline>  (1) 
J2VwaWtfcHl0aG9uJywgJy1waHQnLCAnMS4wJywgJy1waCcsICc3LjQnLCAnLXRuJywgJzgnLCAnLW1hJywgJzUwMCcsICctaW1hZScsICc8aW5maWxlLm1hZT4nLCAnLW9tYWUnLCAnPG91dGZpbGUubWFlPic=

>  <s_epik_input>  (1) 
W2NIXTFbY0hdYyhDbClbY0hdW2NIXWMxW0NIMl1bQ0BdKEMoPU8pW09IXSkoW0NIMl1bT0hdKVtOSF1bQ0BIXShbQ0gzXSlbQ0gyXU9DKD1PKVtDQEhdKFtDSDJdW0NIMl0yKVtDQEBIXShbQ0BASF0yMylPW0NAQF0oRikoW0NAQEhdKEYpW0NIMl1bQ0gyXTMpQyhGKShGKVtDSDJdW05IXUMoPVMpW05IXVtDSDJdW0NIMl1DNChGKVtDSDJdW0NIMl1bQ0gyXTQ=

>  <s_glide_docking_method>  (1) 
confgen

>  <s_i_glide_gridfile>  (1) 
gpcr_drd2_6luq_protein_autoprepared_prepared

>  <s_lp_Force_Field>  (1) 
S-OPLS

>  <s_lp_Variant>  (1) 
DiffSBDD_91_num_sample_100-1

>  <s_m_source_file>  (1) 
generated__ligand_DiffSBDD_2026-05-06_prepared.sdf

>  <GenAI_Model>  (1) 
DiffSBDD

>  <Protein>  (1) 
generic_title2

$$$$
DiffSBDD_72_num_sample_100
     RDKit          3D

  0  0  0  0  0  0  0  0  0  0999 V3000
M  V30 BEGIN CTAB
M  V30 COUNTS 32 34 0 0 1
M  V30 BEGIN ATOM
M  V30 1 C 12.046095 6.812233 -3.028623 0
M  V30 2 C 10.924976 7.553306 -8.934994 0
M  V30 3 C 11.656390 9.027727 -4.727561 0
M  V30 4 C 11.434839 6.635955 -4.283850 0
M  V30 5 C 10.533649 7.573150 -6.488083 0 CFG=2
M  V30 6 C 9.921867 6.169302 -6.730940 0
M  V30 7 N 11.296942 7.957059 -7.669566 0
M  V30 8 C 12.458328 8.090902 -2.621579 0
M  V30 9 C 11.625776 8.134177 -10.091471 0
M  V30 10 C 11.231324 7.747616 -5.138504 0
M  V30 11 F 13.034837 8.261157 -1.411487 0
M  V30 12 C 12.268257 9.195066 -3.469508 0
M  V30 13 C 9.188122 6.020188 -8.078435 0
M  V30 14 C 10.759970 7.369301 -11.210203 0
M  V30 15 C 9.670463 6.393056 -10.577621 0
M  V30 16 C 9.979135 6.698323 -9.167133 0
M  V30 17 H 12.192962 5.963668 -2.375673 0
M  V30 18 H 11.503821 9.881485 -5.371717 0
M  V30 19 H 11.114285 5.654294 -4.582235 0
M  V30 20 H 9.692946 8.268482 -6.458175 0
M  V30 21 H 10.733323 5.441513 -6.731468 0
M  V30 22 H 9.235425 5.915761 -5.924372 0
M  V30 23 H 11.523599 9.218384 -10.126533 0
M  V30 24 H 12.587187 10.169301 -3.150638 0
M  V30 25 H 9.011701 4.971171 -8.316357 0
M  V30 26 H 8.234839 6.521138 -8.019497 0
M  V30 27 H 11.413376 6.821074 -11.890273 0
M  V30 28 H 10.234839 8.103289 -11.823221 0
M  V30 29 H 8.646831 6.678438 -10.824924 0
M  V30 30 H 9.834835 5.341459 -10.813745 0
M  V30 31 H 12.677007 7.847514 -10.104006 0
M  V30 32 H 12.022544 8.648430 -7.557182 0
M  V30 END ATOM
M  V30 BEGIN BOND
M  V30 1 2 4 1
M  V30 2 1 6 5
M  V30 3 1 7 2
M  V30 4 1 7 5
M  V30 5 1 8 1
M  V30 6 1 9 2
M  V30 7 2 10 3
M  V30 8 1 10 4
M  V30 9 1 10 5
M  V30 10 1 11 8
M  V30 11 1 12 3
M  V30 12 2 12 8
M  V30 13 1 13 6
M  V30 14 1 14 9
M  V30 15 1 15 14
M  V30 16 2 16 2
M  V30 17 1 16 13
M  V30 18 1 16 15
M  V30 19 1 17 1
M  V30 20 1 18 3
M  V30 21 1 19 4
M  V30 22 1 5 20 CFG=1
M  V30 23 1 21 6
M  V30 24 1 22 6
M  V30 25 1 23 9
M  V30 26 1 24 12
M  V30 27 1 25 13
M  V30 28 1 26 13
M  V30 29 1 27 14
M  V30 30 1 28 14
M  V30 31 1 29 15
M  V30 32 1 30 15
M  V30 33 1 31 9
M  V30 34 1 32 7
M  V30 END BOND
M  V30 END CTAB
M  END
>  <i_epik_Tot_Q>  (1) 
0

>  <i_epik_Tot_abs_Q>  (1) 
0

>  <i_i_glide_confnum>  (1) 
2

>  <i_i_glide_lignum>  (1) 
145

>  <i_i_glide_posenum>  (1) 
145

>  <i_i_glide_rotatable_bonds>  (1) 
1

>  <i_lp_mmshare_version>  (1) 
72125

>  <i_m_source_file_index>  (1) 
73

>  <i_f3d_flags>  (1) 
0

>  <num_sample>  (1) 
100

>  <b_lp_Chiralities_Consistent>  (1) 
1

>  <r_epik_Charging_Adjusted_Penalty>  (1) 
0.00012261153731157732

>  <r_epik_Ionization_Penalty>  (1) 
0.00096767274994002245

>  <r_epik_Ionization_Penalty_Charging>  (1) 
0.00012261153731157732

>  <r_epik_Ionization_Penalty_Neutral>  (1) 
0.00084506121262844516

>  <r_epik_State_Penalty>  (1) 
-0

>  <r_glide_ring_energy>  (1) 
0

>  <r_i_docking_score>  (1) 
-6.1962889626855926

>  <r_i_glide_ecoul>  (1) 
-0.99812537373421717

>  <r_i_glide_eff_state_penalty>  (1) 
-0

>  <r_i_glide_einternal>  (1) 
2.0061776108448401

>  <r_i_glide_emodel>  (1) 
-36.164894749703564

>  <r_i_glide_emodel_strain>  (1) 
0

>  <r_i_glide_energy>  (1) 
-27.013300412970711

>  <r_i_glide_erotb>  (1) 
0.35536468767402363

>  <r_i_glide_esite>  (1) 
-0.0043219411080163642

>  <r_i_glide_evdw>  (1) 
-26.015175039236492

>  <r_i_glide_gscore>  (1) 
-6.1962889626855926

>  <r_i_glide_gscore_strain>  (1) 
0

>  <r_i_glide_hbond>  (1) 
0

>  <r_i_glide_ligand_efficiency>  (1) 
-0.38726806016784954

>  <r_i_glide_ligand_efficiency_ln>  (1) 
-1.6424501632414528

>  <r_i_glide_ligand_efficiency_sa>  (1) 
-0.97585436191485586

>  <r_i_glide_lipo>  (1) 
-2.2748242422113649

>  <r_i_glide_metal>  (1) 
-0

>  <r_i_glide_rewards>  (1) 
-2.8220299090182772

>  <r_lp_Energy>  (1) 
12.315507

>  <r_lp_tautomer_probability>  (1) 
1

>  <s_epik_Chemistry_Notes>  (1) 
This compound has an imine and may undergo hydrolysis.

>  <s_epik_cmdline>  (1) 
J2VwaWtfcHl0aG9uJywgJy1waHQnLCAnMS4wJywgJy1waCcsICc3LjQnLCAnLXRuJywgJzgnLCAnLW1hJywgJzUwMCcsICctaW1hZScsICc8aW5maWxlLm1hZT4nLCAnLW9tYWUnLCAnPG91dGZpbGUubWFlPic=

>  <s_epik_input>  (1) 
RmMxW2NIXVtjSF1jKFtjSF1bY0hdMSlbQ0BIXShOMilbQ0gyXVtDSDJdW0NASF0oQz0yMylbQ0gyXVtDSDJdW0NIMl0z

>  <s_glide_docking_method>  (1) 
confgen

>  <s_i_glide_gridfile>  (1) 
gpcr_drd2_6luq_protein_autoprepared_prepared

>  <s_lp_Force_Field>  (1) 
S-OPLS

>  <s_lp_Variant>  (1) 
DiffSBDD_72_num_sample_100-2

>  <s_m_source_file>  (1) 
generated__ligand_DiffSBDD_2026-05-06_prepared.sdf

>  <GenAI_Model>  (1) 
DiffSBDD

>  <Protein>  (1) 
generic_title2

$$$$
DiffSBDD_87_num_sample_100
     RDKit          3D

  0  0  0  0  0  0  0  0  0  0999 V3000
M  V30 BEGIN CTAB
M  V30 COUNTS 51 54 0 0 1
M  V30 BEGIN ATOM
M  V30 1 C 6.784368 6.358641 -19.420261 0
M  V30 2 C 4.912929 6.412927 -17.686791 0
M  V30 3 C 7.454995 4.847118 -17.519335 0
M  V30 4 C 8.501316 4.207149 -12.306158 0
M  V30 5 C 12.869961 8.170023 -9.244460 0
M  V30 6 S 6.740282 5.934412 -13.588507 0
M  V30 7 C 11.972233 7.769233 -10.245350 0
M  V30 8 C 7.090118 5.604970 -10.944650 0
M  V30 9 C 5.553641 6.695887 -19.004844 0
M  V30 10 C 10.096486 8.163170 -8.730762 0
M  V30 11 C 5.834839 7.932457 -15.937629 0
M  V30 12 O 8.634833 5.583133 -9.113150 0
M  V30 13 S 9.470837 7.198094 -11.256744 0
M  V30 14 C 12.383398 8.569330 -7.980814 0
M  V30 15 C 10.994576 8.569301 -7.724887 0
M  V30 16 O 6.950855 6.842715 -20.668521 0
M  V30 17 N 5.742916 7.507334 -21.015685 0
M  V30 18 C 7.906124 5.615776 -18.781582 0
M  V30 19 C 5.904326 6.763146 -16.596518 0
M  V30 20 C 10.597330 7.756389 -9.979489 0
M  V30 21 N 9.120771 4.468389 -11.013546 0
M  V30 22 O 10.327416 6.699344 -12.343330 0
M  V30 23 N 4.913038 7.407458 -20.001883 0
M  V30 24 O 8.549466 8.305182 -11.550176 0
M  V30 25 C 7.012686 5.720587 -16.311650 0 CFG=1
M  V30 26 F 14.200934 8.169268 -9.491613 0
M  V30 27 C 7.093851 4.805796 -12.230880 0 CFG=2
M  V30 28 C 8.561415 5.715190 -10.515690 0 CFG=2
M  V30 29 C 6.758838 4.876174 -15.051057 0
M  V30 30 H 4.634889 5.369305 -17.591247 0
M  V30 31 H 3.999400 6.997720 -17.564237 0
M  V30 32 H 8.289848 4.220945 -17.200265 0
M  V30 33 H 6.661890 4.148760 -17.786222 0
M  V30 34 H 9.090425 4.684703 -13.088542 0
M  V30 35 H 8.486594 3.137248 -12.514999 0
M  V30 36 H 12.338593 7.461510 -11.210500 0
M  V30 37 H 6.504588 5.068478 -10.196961 0
M  V30 38 H 6.606178 6.569255 -11.091697 0
M  V30 39 H 9.034831 8.155349 -8.540528 0
M  V30 40 H 5.059952 8.650508 -16.159402 0
M  V30 41 H 6.552635 8.185926 -15.171300 0
M  V30 42 H 7.907324 6.083707 -8.755942 0
M  V30 43 H 13.073967 8.879457 -7.210995 0
M  V30 44 H 10.621586 8.877511 -6.759344 0
M  V30 45 H 8.327901 4.914822 -19.501944 0
M  V30 46 H 8.705336 6.312150 -18.524745 0
M  V30 47 H 8.871341 3.738060 -10.363299 0
M  V30 48 H 7.897295 6.275564 -16.029064 0
M  V30 49 H 6.330959 4.027525 -12.202015 0
M  V30 50 H 7.563140 4.150013 -14.933693 0
M  V30 51 H 5.834838 4.313864 -15.091638 0
M  V30 END ATOM
M  V30 BEGIN BOND
M  V30 1 2 7 5
M  V30 2 2 9 1
M  V30 3 1 9 2
M  V30 4 1 14 5
M  V30 5 1 15 10
M  V30 6 2 15 14
M  V30 7 1 16 1
M  V30 8 1 17 16
M  V30 9 1 18 1
M  V30 10 1 18 3
M  V30 11 1 19 2
M  V30 12 2 19 11
M  V30 13 1 20 7
M  V30 14 2 20 10
M  V30 15 1 20 13
M  V30 16 1 21 4
M  V30 17 2 22 13
M  V30 18 1 23 9
M  V30 19 2 23 17
M  V30 20 2 24 13
M  V30 21 1 25 3
M  V30 22 1 25 19
M  V30 23 1 26 5
M  V30 24 1 27 4
M  V30 25 1 27 6
M  V30 26 1 27 8
M  V30 27 1 28 8
M  V30 28 1 28 12 CFG=1
M  V30 29 1 28 13
M  V30 30 1 28 21
M  V30 31 1 29 6
M  V30 32 1 29 25
M  V30 33 1 30 2
M  V30 34 1 31 2
M  V30 35 1 32 3
M  V30 36 1 33 3
M  V30 37 1 34 4
M  V30 38 1 35 4
M  V30 39 1 36 7
M  V30 40 1 37 8
M  V30 41 1 38 8
M  V30 42 1 39 10
M  V30 43 1 40 11
M  V30 44 1 41 11
M  V30 45 1 42 12
M  V30 46 1 43 14
M  V30 47 1 44 15
M  V30 48 1 45 18
M  V30 49 1 46 18
M  V30 50 1 47 21
M  V30 51 1 25 48 CFG=1
M  V30 52 1 27 49 CFG=1
M  V30 53 1 50 29
M  V30 54 1 51 29
M  V30 END BOND
M  V30 END CTAB
M  END
>  <i_epik_Tot_Q>  (1) 
0

>  <i_epik_Tot_abs_Q>  (1) 
0

>  <i_i_glide_confnum>  (1) 
348

>  <i_i_glide_lignum>  (1) 
177

>  <i_i_glide_posenum>  (1) 
36

>  <i_i_glide_rotatable_bonds>  (1) 
6

>  <i_lp_mmshare_version>  (1) 
72125

>  <i_m_source_file_index>  (1) 
88

>  <i_f3d_flags>  (1) 
0

>  <num_sample>  (1) 
100

>  <b_lp_Chiralities_Consistent>  (1) 
1

>  <r_epik_Charging_Adjusted_Penalty>  (1) 
0

>  <r_epik_Ionization_Penalty>  (1) 
0.0001098004903757838

>  <r_epik_Ionization_Penalty_Charging>  (1) 
0

>  <r_epik_Ionization_Penalty_Neutral>  (1) 
0.0001098004903757838

>  <r_epik_State_Penalty>  (1) 
-0

>  <r_glide_ring_energy>  (1) 
1.2518719696164433

>  <r_i_docking_score>  (1) 
-6.195929250002969

>  <r_i_glide_ecoul>  (1) 
-2.8044304153314554

>  <r_i_glide_eff_state_penalty>  (1) 
-0

>  <r_i_glide_einternal>  (1) 
8.9699166304697613

>  <r_i_glide_emodel>  (1) 
-47.47111348557975

>  <r_i_glide_emodel_strain>  (1) 
1.8599491340327177

>  <r_i_glide_energy>  (1) 
-40.391746629944983

>  <r_i_glide_erotb>  (1) 
0.51657056341793117

>  <r_i_glide_esite>  (1) 
-0.31550335522424294

>  <r_i_glide_evdw>  (1) 
-37.58731621461353

>  <r_i_glide_gscore>  (1) 
-6.195929250002969

>  <r_i_glide_gscore_strain>  (1) 
0

>  <r_i_glide_hbond>  (1) 
-0.089586014980603854

>  <r_i_glide_ligand_efficiency>  (1) 
-0.21365273275872307

>  <r_i_glide_ligand_efficiency_ln>  (1) 
-1.4187106830411709

>  <r_i_glide_ligand_efficiency_sa>  (1) 
-0.65640888570838685

>  <r_i_glide_lipo>  (1) 
-2.6950934110947489

>  <r_i_glide_metal>  (1) 
-0

>  <r_i_glide_rewards>  (1) 
-1.3122866590909097

>  <r_lp_Energy>  (1) 
18.696739000000001

>  <r_lp_tautomer_probability>  (1) 
1

>  <s_epik_cmdline>  (1) 
J2VwaWtfcHl0aG9uJywgJy1waHQnLCAnMS4wJywgJy1waCcsICc3LjQnLCAnLXRuJywgJzgnLCAnLW1hJywgJzUwMCcsICctaW1hZScsICc8aW5maWxlLm1hZT4nLCAnLW9tYWUnLCAnPG91dGZpbGUubWFlPic=

>  <s_epik_input>  (1) 
bzFubmMoYzEyKVtDSDJdQyg9W0NIMl0pW0NASF0oW0NIMl1bQ0gyXTIpW0NIMl1TW0NAQEhdKFtDSDJdW05IXTMpW0NIMl1bQ0BdMyhbT0hdKVMoPU8pKD1PKWMoW2NIXWM0RilbY0hdW2NIXVtjSF00

>  <s_glide_docking_method>  (1) 
confgen

>  <s_i_glide_gridfile>  (1) 
gpcr_drd2_6luq_protein_autoprepared_prepared

>  <s_lp_Force_Field>  (1) 
S-OPLS

>  <s_lp_Variant>  (1) 
DiffSBDD_87_num_sample_100-1

>  <s_m_source_file>  (1) 
generated__ligand_DiffSBDD_2026-05-06_prepared.sdf

>  <GenAI_Model>  (1) 
DiffSBDD

>  <Protein>  (1) 
generic_title2

$$$$
DiffSBDD_25_num_sample_100
     RDKit          3D

  0  0  0  0  0  0  0  0  0  0999 V3000
M  V30 BEGIN CTAB
M  V30 COUNTS 66 69 0 0 1
M  V30 BEGIN ATOM
M  V30 1 C 4.386970 7.432063 -18.753773 0
M  V30 2 C 11.920013 8.663135 -9.044841 0
M  V30 3 C 10.395353 7.559493 -10.662222 0
M  V30 4 C 7.276841 4.824898 -13.401274 0 CFG=2
M  V30 5 C 11.433932 6.999503 -5.664377 0
M  V30 6 O 10.230084 8.970599 -6.238959 0
M  V30 7 C 9.501112 7.886014 -6.754991 0 CFG=1
M  V30 8 C 11.463907 8.543494 -5.705113 0 CFG=2
M  V30 9 F 12.719590 8.463504 -10.097038 0
M  V30 10 C 12.553095 9.242011 -6.537044 0
M  V30 11 C 7.378497 5.139026 -17.147257 0
M  V30 12 C 9.490956 7.894903 -8.290223 0
M  V30 13 F 11.440174 9.896252 -9.158557 0
M  V30 14 C 6.998478 7.101062 -12.156252 0 CFG=1
M  V30 15 N 6.427490 5.738010 -17.954631 0
M  V30 16 C 10.767120 7.615517 -9.148050 0 CFG=2
M  V30 17 O 6.731831 5.011738 -11.014137 0
M  V30 18 C 9.329519 4.569544 -14.920793 0
M  V30 19 C 8.224497 7.947531 -11.817580 0
M  V30 20 F 6.532969 7.400078 -13.354193 0
M  V30 21 C 8.092683 5.410734 -14.618597 0 CFG=1
M  V30 22 C 8.918083 5.715956 -11.528923 0
M  V30 23 C 5.832982 6.596868 -17.117982 0
M  V30 24 C 5.779510 4.634259 -13.740439 0
M  V30 25 C 10.031219 6.629836 -6.077810 0
M  V30 26 O 6.341544 6.624864 -15.855977 0
M  V30 27 O 5.161892 3.769303 -12.838255 0
M  V30 28 C 12.920368 8.569976 -7.882684 0
M  V30 29 N 9.035061 7.068708 -10.957080 0 CFG=1 CHG=1
M  V30 30 C 7.321565 5.673708 -15.888576 0
M  V30 31 O 4.799185 7.410699 -17.397475 0
M  V30 32 C 7.465829 5.632752 -12.062974 0 CFG=1
M  V30 33 H 3.509658 8.070618 -18.859581 0
M  V30 34 H 5.172480 7.834981 -19.395559 0
M  V30 35 H 4.125133 6.430139 -19.096428 0
M  V30 36 H 11.130773 6.979548 -11.221009 0
M  V30 37 H 10.457673 8.568841 -11.061230 0
M  V30 38 H 7.654577 3.815402 -13.225667 0
M  V30 39 H 12.119411 6.514636 -6.351974 0
M  V30 40 H 11.675780 6.616321 -4.671641 0
M  V30 41 H 8.467894 8.030723 -6.437657 0
M  V30 42 H 11.506898 8.927827 -4.685453 0
M  V30 43 H 13.461630 9.369286 -5.942456 0
M  V30 44 H 12.233323 10.272029 -6.691766 0
M  V30 45 H 8.026726 4.364308 -17.532299 0
M  V30 46 H 9.034664 8.827044 -8.622743 0
M  V30 47 H 8.776972 7.100983 -8.500540 0
M  V30 48 H 6.163191 7.312585 -11.492269 0
M  V30 49 H 11.149428 6.633711 -8.864908 0
M  V30 50 H 6.681846 5.597984 -10.267977 0
M  V30 51 H 10.044697 5.114221 -15.539089 0
M  V30 52 H 9.834098 4.272672 -14.003848 0
M  V30 53 H 9.034448 3.667756 -15.460404 0
M  V30 54 H 7.958701 8.881142 -11.317376 0
M  V30 55 H 8.787294 8.193837 -12.716235 0
M  V30 56 H 8.480562 6.373669 -14.310805 0
M  V30 57 H 9.170082 4.943393 -10.799009 0
M  V30 58 H 9.640889 5.636866 -12.336997 0
M  V30 59 H 5.687513 4.157008 -14.694239 0
M  V30 60 H 5.210235 5.560054 -13.797558 0
M  V30 61 H 9.445560 6.399304 -5.189788 0
M  V30 62 H 9.992095 5.758622 -6.727996 0
M  V30 63 H 5.441398 4.041357 -11.969214 0
M  V30 64 H 13.230513 7.537217 -7.779278 0
M  V30 65 H 13.835979 9.056291 -8.208990 0
M  V30 66 H 8.499314 7.086732 -10.090304 0
M  V30 END ATOM
M  V30 BEGIN BOND
M  V30 1 1 7 6
M  V30 2 1 8 5
M  V30 3 1 8 6
M  V30 4 1 9 2
M  V30 5 1 10 8
M  V30 6 1 12 7
M  V30 7 1 13 2
M  V30 8 1 15 11
M  V30 9 1 16 2
M  V30 10 1 16 3
M  V30 11 1 16 12
M  V30 12 1 19 14
M  V30 13 1 20 14
M  V30 14 1 21 4
M  V30 15 1 21 18
M  V30 16 2 23 15
M  V30 17 1 24 4
M  V30 18 1 25 5
M  V30 19 1 25 7
M  V30 20 1 26 23
M  V30 21 1 27 24
M  V30 22 1 28 2
M  V30 23 1 28 10
M  V30 24 1 29 3
M  V30 25 1 29 19
M  V30 26 1 29 22
M  V30 27 2 30 11
M  V30 28 1 30 21
M  V30 29 1 30 26
M  V30 30 1 31 1
M  V30 31 1 31 23
M  V30 32 1 32 4
M  V30 33 1 32 14
M  V30 34 1 32 17 CFG=1
M  V30 35 1 32 22
M  V30 36 1 33 1
M  V30 37 1 34 1
M  V30 38 1 35 1
M  V30 39 1 36 3
M  V30 40 1 37 3
M  V30 41 1 4 38 CFG=1
M  V30 42 1 39 5
M  V30 43 1 40 5
M  V30 44 1 7 41 CFG=1
M  V30 45 1 8 42 CFG=1
M  V30 46 1 43 10
M  V30 47 1 44 10
M  V30 48 1 45 11
M  V30 49 1 46 12
M  V30 50 1 47 12
M  V30 51 1 14 48 CFG=1
M  V30 52 1 16 49 CFG=1
M  V30 53 1 50 17
M  V30 54 1 51 18
M  V30 55 1 52 18
M  V30 56 1 53 18
M  V30 57 1 54 19
M  V30 58 1 55 19
M  V30 59 1 21 56 CFG=1
M  V30 60 1 57 22
M  V30 61 1 58 22
M  V30 62 1 59 24
M  V30 63 1 60 24
M  V30 64 1 61 25
M  V30 65 1 62 25
M  V30 66 1 63 27
M  V30 67 1 64 28
M  V30 68 1 65 28
M  V30 69 1 29 66 CFG=1
M  V30 END BOND
M  V30 END CTAB
M  END
>  <i_epik_Tot_Q>  (1) 
1

>  <i_epik_Tot_abs_Q>  (1) 
1

>  <i_i_glide_confnum>  (1) 
244

>  <i_i_glide_lignum>  (1) 
39

>  <i_i_glide_posenum>  (1) 
173

>  <i_i_glide_rotatable_bonds>  (1) 
9

>  <i_lp_mmshare_version>  (1) 
72125

>  <i_m_source_file_index>  (1) 
26

>  <i_f3d_flags>  (1) 
0

>  <num_sample>  (1) 
100

>  <b_lp_Chiralities_Consistent>  (1) 
1

>  <r_epik_Charging_Adjusted_Penalty>  (1) 
0.21543991348680042

>  <r_epik_Ionization_Penalty>  (1) 
0.10772808098718631

>  <r_epik_Ionization_Penalty_Charging>  (1) 
0.10771995674340021

>  <r_epik_Ionization_Penalty_Neutral>  (1) 
8.124243786105112e-06

>  <r_epik_State_Penalty>  (1) 
0.10771995674340022

>  <r_glide_ring_energy>  (1) 
0

>  <r_i_docking_score>  (1) 
-6.1833825276782477

>  <r_i_glide_ecoul>  (1) 
-8.9225810087877289

>  <r_i_glide_eff_state_penalty>  (1) 
0.10771995674340022

>  <r_i_glide_einternal>  (1) 
54.405840562876449

>  <r_i_glide_emodel>  (1) 
-28.209382483423269

>  <r_i_glide_emodel_strain>  (1) 
1.4072927180274775

>  <r_i_glide_energy>  (1) 
-40.827722798892502

>  <r_i_glide_erotb>  (1) 
0.56277696399540145

>  <r_i_glide_esite>  (1) 
-0.095252915342507904

>  <r_i_glide_evdw>  (1) 
-31.905141790104775

>  <r_i_glide_gscore>  (1) 
-6.2911024844216481

>  <r_i_glide_gscore_strain>  (1) 
0

>  <r_i_glide_hbond>  (1) 
-0.17114801609904345

>  <r_i_glide_ligand_efficiency>  (1) 
-0.19323070398994524

>  <r_i_glide_ligand_efficiency_ln>  (1) 
-1.3846279005889417

>  <r_i_glide_ligand_efficiency_sa>  (1) 
-0.6134692455723898

>  <r_i_glide_lipo>  (1) 
-2.36398288622784

>  <r_i_glide_metal>  (1) 
-0

>  <r_i_glide_rewards>  (1) 
-1.2898513899242585

>  <r_lp_Energy>  (1) 
39.383341000000001

>  <s_epik_cmdline>  (1) 
J2VwaWtfcHl0aG9uJywgJy1waHQnLCAnMS4wJywgJy1waCcsICc3LjQnLCAnLXRuJywgJzgnLCAnLW1hJywgJzUwMCcsICctaW1hZScsICc8aW5maWxlLm1hZT4nLCAnLW9tYWUnLCAnPG91dGZpbGUubWFlPic=

>  <s_epik_input>  (1) 
W0NIM11PYzFuW2NIXWMobzEpW0NASF0oW0NIM10pW0NASF0oW0NIMl1bT0hdKVtDQF0yKFtPSF0pW0NASF0oRilbQ0gyXU4oW0NIMl0yKVtDSDJdW0NASF0oW0NIMl0zKUMoRikoRilbQ0gyXVtDSDJdW0NASF0oW0NIMl1bQ0gyXTQpT1tDQEBIXTM0

>  <s_glide_docking_method>  (1) 
confgen

>  <s_i_glide_gridfile>  (1) 
gpcr_drd2_6luq_protein_autoprepared_prepared

>  <s_lp_Force_Field>  (1) 
S-OPLS

>  <s_lp_Variant>  (1) 
DiffSBDD_25_num_sample_100-2

>  <s_m_source_file>  (1) 
generated__ligand_DiffSBDD_2026-05-06_prepared.sdf

>  <GenAI_Model>  (1) 
DiffSBDD

>  <Protein>  (1) 
generic_title2

$$$$
DiffSBDD_16_num_sample_100
     RDKit          3D

  0  0  0  0  0  0  0  0  0  0999 V3000
M  V30 BEGIN CTAB
M  V30 COUNTS 54 57 0 0 1
M  V30 BEGIN ATOM
M  V30 1 C 10.458734 6.063648 -7.525748 0
M  V30 2 C 11.089745 7.369303 -10.587602 0
M  V30 3 C 7.588833 0.944367 -15.477186 0
M  V30 4 C 7.434810 2.335914 -15.351530 0
M  V30 5 C 7.403818 6.441273 -12.859686 0
M  V30 6 C 9.941864 8.780445 -6.879220 0 CFG=1
M  V30 7 C 9.891810 6.677059 -9.931743 0 CFG=1
M  V30 8 C 7.105182 0.089509 -14.469379 0
M  V30 9 C 6.321166 2.014284 -13.202129 0
M  V30 10 C 6.796594 2.872375 -14.215408 0
M  V30 11 C 8.185946 8.617723 -11.951764 0
M  V30 12 C 6.472812 0.622018 -13.331420 0
M  V30 13 C 11.204468 8.047821 -6.415163 0 CFG=1
M  V30 14 C 6.614424 4.365993 -14.084775 0
M  V30 15 C 7.680525 4.968980 -13.176043 0
M  V30 16 N 5.991719 -0.230691 -12.339081 0
M  V30 17 C 9.397202 5.349973 -10.453147 0
M  V30 18 C 8.524755 7.128618 -12.061880 0 CFG=1
M  V30 19 C 10.907804 9.415098 -5.903929 0
M  V30 20 O 10.102717 8.419085 -8.246778 0
M  V30 21 C 9.692182 7.049305 -8.461412 0 CFG=2
M  V30 22 C 10.744211 6.646874 -6.126889 0
M  V30 23 N 8.635570 6.569301 -10.691667 0 CFG=2 CHG=1
M  V30 24 H 9.923819 5.116406 -7.476116 0
M  V30 25 H 11.426687 5.843506 -7.966288 0
M  V30 26 H 11.970594 7.253767 -9.955548 0
M  V30 27 H 11.334591 6.949388 -11.561997 0
M  V30 28 H 10.913047 8.438551 -10.691666 0
M  V30 29 H 8.074807 0.530688 -16.348318 0
M  V30 30 H 7.801459 2.991735 -16.127562 0
M  V30 31 H 7.269649 6.975142 -13.801932 0
M  V30 32 H 6.455898 6.530493 -12.325759 0
M  V30 33 H 8.959076 8.517331 -6.485814 0
M  V30 34 H 7.219766 -0.976516 -14.569425 0
M  V30 35 H 5.834847 2.426450 -12.331319 0
M  V30 36 H 8.234838 9.112868 -12.919504 0
M  V30 37 H 7.183291 8.772825 -11.550533 0
M  V30 38 H 8.864234 9.123193 -11.275073 0
M  V30 39 H 12.087879 8.058122 -7.055311 0
M  V30 40 H 6.641652 4.833568 -15.070068 0
M  V30 41 H 5.619422 4.557915 -13.679936 0
M  V30 42 H 7.694110 4.397214 -12.248929 0
M  V30 43 H 8.662575 4.853068 -13.637066 0
M  V30 44 H 5.834839 -1.211795 -12.570302 0
M  V30 45 H 5.365218 0.140113 -11.641252 0
M  V30 46 H 8.819671 4.681434 -9.817912 0
M  V30 47 H 9.828571 4.940171 -11.364364 0
M  V30 48 H 9.452175 7.009505 -12.619101 0
M  V30 49 H 11.515478 10.236594 -6.277621 0
M  V30 50 H 10.634839 9.493908 -4.855267 0
M  V30 51 H 8.634839 6.969299 -8.212863 0
M  V30 52 H 11.525583 6.087698 -5.611281 0
M  V30 53 H 9.855204 6.643894 -5.493617 0
M  V30 54 H 7.863520 6.819347 -10.061801 0
M  V30 END ATOM
M  V30 BEGIN BOND
M  V30 1 1 4 3
M  V30 2 1 7 2 CFG=3
M  V30 3 2 8 3
M  V30 4 2 10 4
M  V30 5 1 10 9
M  V30 6 1 12 8
M  V30 7 2 12 9
M  V30 8 1 13 6
M  V30 9 1 14 10
M  V30 10 1 15 5
M  V30 11 1 15 14
M  V30 12 1 16 12
M  V30 13 1 17 7
M  V30 14 1 18 5
M  V30 15 1 18 11
M  V30 16 1 19 6
M  V30 17 1 19 13
M  V30 18 1 20 6
M  V30 19 1 21 1
M  V30 20 1 21 7
M  V30 21 1 21 20
M  V30 22 1 22 1
M  V30 23 1 22 13
M  V30 24 1 23 7
M  V30 25 1 23 17
M  V30 26 1 23 18
M  V30 27 1 24 1
M  V30 28 1 25 1
M  V30 29 1 26 2
M  V30 30 1 27 2
M  V30 31 1 28 2
M  V30 32 1 29 3
M  V30 33 1 30 4
M  V30 34 1 31 5
M  V30 35 1 32 5
M  V30 36 1 6 33 CFG=1
M  V30 37 1 34 8
M  V30 38 1 35 9
M  V30 39 1 36 11
M  V30 40 1 37 11
M  V30 41 1 38 11
M  V30 42 1 13 39 CFG=3
M  V30 43 1 40 14
M  V30 44 1 41 14
M  V30 45 1 42 15
M  V30 46 1 43 15
M  V30 47 1 44 16
M  V30 48 1 45 16
M  V30 49 1 46 17
M  V30 50 1 47 17
M  V30 51 1 18 48 CFG=3
M  V30 52 1 49 19
M  V30 53 1 50 19
M  V30 54 1 21 51 CFG=1
M  V30 55 1 52 22
M  V30 56 1 53 22
M  V30 57 1 23 54 CFG=1
M  V30 END BOND
M  V30 END CTAB
M  END
>  <i_epik_Tot_Q>  (1) 
1

>  <i_epik_Tot_abs_Q>  (1) 
1

>  <i_i_glide_confnum>  (1) 
51

>  <i_i_glide_lignum>  (1) 
27

>  <i_i_glide_posenum>  (1) 
165

>  <i_i_glide_rotatable_bonds>  (1) 
6

>  <i_lp_mmshare_version>  (1) 
72125

>  <i_m_source_file_index>  (1) 
17

>  <i_f3d_flags>  (1) 
0

>  <num_sample>  (1) 
100

>  <b_lp_Chiralities_Consistent>  (1) 
1

>  <r_epik_Charging_Adjusted_Penalty>  (1) 
0.11272327168216571

>  <r_epik_Ionization_Penalty>  (1) 
0.057493963086777844

>  <r_epik_Ionization_Penalty_Charging>  (1) 
0.056361635841082856

>  <r_epik_Ionization_Penalty_Neutral>  (1) 
0.0011323272456949893

>  <r_epik_State_Penalty>  (1) 
0.056361635841082856

>  <r_glide_ring_energy>  (1) 
0

>  <r_i_docking_score>  (1) 
-6.1832790355201039

>  <r_i_glide_ecoul>  (1) 
-8.6873362975047677

>  <r_i_glide_eff_state_penalty>  (1) 
0.056361635841082856

>  <r_i_glide_einternal>  (1) 
2.1197506542377038

>  <r_i_glide_emodel>  (1) 
-54.120230871535753

>  <r_i_glide_emodel_strain>  (1) 
0.23804186639179647

>  <r_i_glide_energy>  (1) 
-37.596079730556326

>  <r_i_glide_erotb>  (1) 
1.1214719841998091

>  <r_i_glide_esite>  (1) 
-0.083009629120142189

>  <r_i_glide_evdw>  (1) 
-28.908743433051555

>  <r_i_glide_gscore>  (1) 
-6.2396406713611867

>  <r_i_glide_gscore_strain>  (1) 
0

>  <r_i_glide_hbond>  (1) 
-0.35999999999999999

>  <r_i_glide_ligand_efficiency>  (1) 
-0.26883821893565668

>  <r_i_glide_ligand_efficiency_ln>  (1) 
-1.4951729376632352

>  <r_i_glide_ligand_efficiency_sa>  (1) 
-0.76454013375321994

>  <r_i_glide_lipo>  (1) 
-2.1356412617796869

>  <r_i_glide_metal>  (1) 
-0

>  <r_i_glide_rewards>  (1) 
-2.0339241483828729

>  <r_lp_Energy>  (1) 
55.325258999999996

>  <s_epik_cmdline>  (1) 
J2VwaWtfcHl0aG9uJywgJy1waHQnLCAnMS4wJywgJy1waCcsICc3LjQnLCAnLXRuJywgJzgnLCAnLW1hJywgJzUwMCcsICctaW1hZScsICc8aW5maWxlLm1hZT4nLCAnLW9tYWUnLCAnPG91dGZpbGUubWFlPic=

>  <s_epik_input>  (1) 
W0NIXTEyW0NIXShbQ0gyXTEpW0NIMl1bQ0gyXVtDQEBIXShPMilbQ0BAXTMoW0NIM10pW0NIMl1OM1tDQEhdKFtDSDNdKVtDSDJdW0NIMl1bQ0gyXWM0W2NIXVtjSF1bY0hdYyhbY0hdNClbTkgyXQ==

>  <s_glide_docking_method>  (1) 
confgen

>  <s_i_glide_gridfile>  (1) 
gpcr_drd2_6luq_protein_autoprepared_prepared

>  <s_lp_Force_Field>  (1) 
S-OPLS

>  <s_lp_Variant>  (1) 
DiffSBDD_16_num_sample_100-2

>  <s_m_source_file>  (1) 
generated__ligand_DiffSBDD_2026-05-06_prepared.sdf

>  <GenAI_Model>  (1) 
DiffSBDD

>  <Protein>  (1) 
generic_title2

$$$$
DiffSBDD_72_num_sample_100
     RDKit          3D

  0  0  0  0  0  0  0  0  0  0999 V3000
M  V30 BEGIN CTAB
M  V30 COUNTS 32 34 0 0 1
M  V30 BEGIN ATOM
M  V30 1 C 11.834839 9.334256 -3.254509 0
M  V30 2 C 9.585249 6.262283 -8.058926 0
M  V30 3 C 11.722519 6.664952 -4.138307 0
M  V30 4 C 11.486143 9.053268 -4.593305 0
M  V30 5 C 11.127056 7.387744 -6.501361 0 CFG=2
M  V30 6 C 11.101104 8.569474 -7.506518 0
M  V30 7 N 10.023012 6.489817 -6.775225 0
M  V30 8 C 12.139248 8.289233 -2.367668 0
M  V30 9 C 8.634839 5.160289 -8.291669 0
M  V30 10 C 11.434839 7.711897 -5.040888 0
M  V30 11 F 12.483395 8.569302 -1.091668 0
M  V30 12 C 12.077884 6.954377 -2.805185 0
M  V30 13 C 10.950973 8.113713 -8.989656 0
M  V30 14 C 8.568520 5.321514 -9.883538 0
M  V30 15 C 9.434839 6.563197 -10.403791 0
M  V30 16 C 9.976590 6.951648 -9.083714 0
M  V30 17 H 11.861074 10.347215 -2.904155 0
M  V30 18 H 11.689542 5.641559 -4.475035 0
M  V30 19 H 11.266517 9.864095 -5.270661 0
M  V30 20 H 11.993080 6.795566 -6.799775 0
M  V30 21 H 10.252958 9.201773 -7.246217 0
M  V30 22 H 11.997814 9.182136 -7.410169 0
M  V30 23 H 9.033387 4.197629 -7.972849 0
M  V30 24 H 12.307010 6.150451 -2.120782 0
M  V30 25 H 10.600124 8.944327 -9.602377 0
M  V30 26 H 11.911415 7.791325 -9.392368 0
M  V30 27 H 7.530511 5.437053 -10.198148 0
M  V30 28 H 8.929115 4.406800 -10.355070 0
M  V30 29 H 10.220970 6.273635 -11.101031 0
M  V30 30 H 8.821571 7.357920 -10.829499 0
M  V30 31 H 7.678267 5.362379 -7.810159 0
M  V30 32 H 9.697016 5.900069 -6.022496 0
M  V30 END ATOM
M  V30 BEGIN BOND
M  V30 1 2 4 1
M  V30 2 1 6 5
M  V30 3 1 7 2
M  V30 4 1 7 5
M  V30 5 1 8 1
M  V30 6 1 9 2
M  V30 7 2 10 3
M  V30 8 1 10 4
M  V30 9 1 10 5
M  V30 10 1 11 8
M  V30 11 1 12 3
M  V30 12 2 12 8
M  V30 13 1 13 6
M  V30 14 1 14 9
M  V30 15 1 15 14
M  V30 16 2 16 2
M  V30 17 1 16 13
M  V30 18 1 16 15
M  V30 19 1 17 1
M  V30 20 1 18 3
M  V30 21 1 19 4
M  V30 22 1 5 20 CFG=3
M  V30 23 1 21 6
M  V30 24 1 22 6
M  V30 25 1 23 9
M  V30 26 1 24 12
M  V30 27 1 25 13
M  V30 28 1 26 13
M  V30 29 1 27 14
M  V30 30 1 28 14
M  V30 31 1 29 15
M  V30 32 1 30 15
M  V30 33 1 31 9
M  V30 34 1 32 7
M  V30 END BOND
M  V30 END CTAB
M  END
>  <i_epik_Tot_Q>  (1) 
0

>  <i_epik_Tot_abs_Q>  (1) 
0

>  <i_i_glide_confnum>  (1) 
3

>  <i_i_glide_lignum>  (1) 
145

>  <i_i_glide_posenum>  (1) 
371

>  <i_i_glide_rotatable_bonds>  (1) 
1

>  <i_lp_mmshare_version>  (1) 
72125

>  <i_m_source_file_index>  (1) 
73

>  <i_f3d_flags>  (1) 
0

>  <num_sample>  (1) 
100

>  <b_lp_Chiralities_Consistent>  (1) 
1

>  <r_epik_Charging_Adjusted_Penalty>  (1) 
0.00012261153731157732

>  <r_epik_Ionization_Penalty>  (1) 
0.00096767274994002245

>  <r_epik_Ionization_Penalty_Charging>  (1) 
0.00012261153731157732

>  <r_epik_Ionization_Penalty_Neutral>  (1) 
0.00084506121262844516

>  <r_epik_State_Penalty>  (1) 
-0

>  <r_glide_ring_energy>  (1) 
0

>  <r_i_docking_score>  (1) 
-6.1777137377050444

>  <r_i_glide_ecoul>  (1) 
0.010925027862918379

>  <r_i_glide_eff_state_penalty>  (1) 
-0

>  <r_i_glide_einternal>  (1) 
1.8998141334943526

>  <r_i_glide_emodel>  (1) 
-36.540023230132647

>  <r_i_glide_emodel_strain>  (1) 
0

>  <r_i_glide_energy>  (1) 
-27.365688847342117

>  <r_i_glide_erotb>  (1) 
0.35536468767402363

>  <r_i_glide_esite>  (1) 
0

>  <r_i_glide_evdw>  (1) 
-27.376613875205035

>  <r_i_glide_gscore>  (1) 
-6.1777137377050444

>  <r_i_glide_gscore_strain>  (1) 
0

>  <r_i_glide_hbond>  (1) 
0

>  <r_i_glide_ligand_efficiency>  (1) 
-0.38610710860656527

>  <r_i_glide_ligand_efficiency_ln>  (1) 
-1.637526428811817

>  <r_i_glide_ligand_efficiency_sa>  (1) 
-0.97292894729491519

>  <r_i_glide_lipo>  (1) 
-2.178503212948367

>  <r_i_glide_metal>  (1) 
-0

>  <r_i_glide_rewards>  (1) 
-2.987383272849887

>  <r_lp_Energy>  (1) 
12.315507

>  <r_lp_tautomer_probability>  (1) 
1

>  <s_epik_Chemistry_Notes>  (1) 
This compound has an imine and may undergo hydrolysis.

>  <s_epik_cmdline>  (1) 
J2VwaWtfcHl0aG9uJywgJy1waHQnLCAnMS4wJywgJy1waCcsICc3LjQnLCAnLXRuJywgJzgnLCAnLW1hJywgJzUwMCcsICctaW1hZScsICc8aW5maWxlLm1hZT4nLCAnLW9tYWUnLCAnPG91dGZpbGUubWFlPic=

>  <s_epik_input>  (1) 
RmMxW2NIXVtjSF1jKFtjSF1bY0hdMSlbQ0BIXShOMilbQ0gyXVtDSDJdW0NASF0oQz0yMylbQ0gyXVtDSDJdW0NIMl0z

>  <s_glide_docking_method>  (1) 
confgen

>  <s_i_glide_gridfile>  (1) 
gpcr_drd2_6luq_protein_autoprepared_prepared

>  <s_lp_Force_Field>  (1) 
S-OPLS

>  <s_lp_Variant>  (1) 
DiffSBDD_72_num_sample_100-2

>  <s_m_source_file>  (1) 
generated__ligand_DiffSBDD_2026-05-06_prepared.sdf

>  <GenAI_Model>  (1) 
DiffSBDD

>  <Protein>  (1) 
generic_title2

$$$$
DiffSBDD_76_num_sample_100
     RDKit          3D

  0  0  0  0  0  0  0  0  0  0999 V3000
M  V30 BEGIN CTAB
M  V30 COUNTS 78 81 0 0 1
M  V30 BEGIN ATOM
M  V30 1 C 5.871501 3.469393 -12.954834 0
M  V30 2 C 8.583609 1.455750 -16.875142 0
M  V30 3 C 9.560963 4.646014 -12.656912 0
M  V30 4 N 7.073794 4.297572 -13.219132 0 CFG=1 CHG=1
M  V30 5 C 9.439964 1.269934 -18.000807 0
M  V30 6 C 12.234855 8.219278 -3.551897 0
M  V30 7 C 12.421938 9.198652 -4.441641 0
M  V30 8 C 10.503780 7.748045 -7.300134 0 CFG=1
M  V30 9 C 6.961704 1.854452 -14.642777 0
M  V30 10 N 9.435011 7.118753 -9.617414 0 CFG=1 CHG=1
M  V30 11 C 9.745774 8.435617 -10.242790 0
M  V30 12 C 7.532668 2.983777 -15.262717 0
M  V30 13 C 12.235052 9.024243 -5.943659 0
M  V30 14 C 8.961684 3.891614 -17.053483 0
M  V30 15 C 7.223740 0.587803 -15.178760 0
M  V30 16 C 9.769542 5.378808 -7.870651 0
M  V30 17 C 6.095163 2.001691 -13.390870 0
M  V30 18 C 9.063115 6.011525 -10.567985 0
M  V30 19 N 8.002656 0.390607 -16.256975 0
M  V30 20 O 8.634784 8.653036 -11.091748 0
M  V30 21 O 11.254653 1.140985 -20.360173 0
M  V30 22 C 11.784082 7.586677 -6.428482 0 CFG=1
M  V30 23 C 10.050471 2.396767 -18.644313 0
M  V30 24 C 9.624457 6.035381 -12.002274 0
M  V30 25 N 8.236600 8.569302 -6.691603 0 CHG=1
M  V30 26 C 10.298630 6.693581 -8.456054 0 CFG=2
M  V30 27 O 9.676593 -0.004615 -18.455680 0 CHG=-1
M  V30 28 C 8.268793 3.825177 -12.458108 0
M  V30 29 C 8.359216 2.790385 -16.404222 0
M  V30 30 C 7.278028 4.379757 -14.685793 0
M  V30 31 C 9.397618 7.874009 -6.251493 0
M  V30 32 C 11.834836 6.896714 -3.955389 0
M  V30 33 C 11.628728 6.577518 -5.245298 0
M  V30 34 C 10.971958 2.222647 -19.845037 0
M  V30 35 C 9.795070 3.696866 -18.157449 0
M  V30 36 C 11.568069 3.509132 -20.419497 0
M  V30 37 H 5.607374 3.527228 -11.898661 0
M  V30 38 H 5.025273 3.895393 -13.496765 0
M  V30 39 H 9.836385 4.704569 -13.708296 0
M  V30 40 H 10.351765 4.051775 -12.211546 0
M  V30 41 H 12.391893 8.424372 -2.503402 0
M  V30 42 H 12.725556 10.169301 -4.102774 0
M  V30 43 H 10.631210 8.708282 -7.786618 0
M  V30 44 H 10.692622 8.445195 -10.779629 0
M  V30 45 H 9.731068 9.253968 -9.525254 0
M  V30 46 H 13.167320 9.313318 -6.434381 0
M  V30 47 H 11.528419 9.803270 -6.228501 0
M  V30 48 H 8.790008 4.892542 -16.704989 0
M  V30 49 H 6.804360 -0.296625 -14.721656 0
M  V30 50 H 9.933840 5.368058 -6.816050 0
M  V30 51 H 8.689998 5.264497 -7.985257 0
M  V30 52 H 10.269288 4.512448 -8.298507 0
M  V30 53 H 5.140960 1.490931 -13.531263 0
M  V30 54 H 6.599240 1.464123 -12.587106 0
M  V30 55 H 9.310915 5.034093 -10.172269 0
M  V30 56 H 7.974555 6.019872 -10.641460 0
M  V30 57 H 7.834842 8.492652 -10.581556 0
M  V30 58 H 12.552317 7.190316 -7.092447 0
M  V30 59 H 9.072202 6.737441 -12.625879 0
M  V30 60 H 10.663756 6.363239 -12.005355 0
M  V30 61 H 7.773461 8.970052 -5.885552 0
M  V30 62 H 8.449609 9.310859 -7.342522 0
M  V30 63 H 11.282797 6.516711 -8.887233 0
M  V30 64 H 8.520642 2.800310 -12.727426 0
M  V30 65 H 8.001364 3.767574 -11.406625 0
M  V30 66 H 6.391835 4.801332 -15.163447 0
M  V30 67 H 8.075256 5.096883 -14.849489 0
M  V30 68 H 9.085447 6.943484 -5.785433 0
M  V30 69 H 9.763576 8.528445 -5.476168 0
M  V30 70 H 11.710959 6.132866 -3.200104 0
M  V30 71 H 11.363204 5.569891 -5.493213 0
M  V30 72 H 10.244153 4.554170 -18.631045 0
M  V30 73 H 12.120836 4.051575 -19.652451 0
M  V30 74 H 12.257301 3.283545 -21.233469 0
M  V30 75 H 10.779036 4.150483 -20.811905 0
M  V30 76 H 7.558780 7.906704 -7.091369 0
M  V30 77 H 6.868478 5.232088 -12.895879 0
M  V30 78 H 8.522595 7.301653 -9.198546 0
M  V30 END ATOM
M  V30 BEGIN BOND
M  V30 1 1 4 1
M  V30 2 2 5 2
M  V30 3 2 7 6
M  V30 4 1 11 10
M  V30 5 2 12 9
M  V30 6 1 13 7
M  V30 7 1 15 9
M  V30 8 1 17 1
M  V30 9 1 17 9
M  V30 10 1 18 10
M  V30 11 1 19 2
M  V30 12 2 19 15
M  V30 13 1 20 11
M  V30 14 1 22 8
M  V30 15 1 22 13
M  V30 16 1 23 5
M  V30 17 1 24 3
M  V30 18 1 24 18
M  V30 19 1 26 8
M  V30 20 1 26 10
M  V30 21 1 26 16
M  V30 22 1 27 5
M  V30 23 1 28 3
M  V30 24 1 28 4
M  V30 25 1 29 2
M  V30 26 1 29 12
M  V30 27 2 29 14
M  V30 28 1 30 4
M  V30 29 1 30 12
M  V30 30 1 31 8
M  V30 31 1 31 25
M  V30 32 1 32 6
M  V30 33 1 33 22
M  V30 34 2 33 32
M  V30 35 2 34 21
M  V30 36 1 34 23
M  V30 37 1 35 14
M  V30 38 2 35 23
M  V30 39 1 36 34
M  V30 40 1 37 1
M  V30 41 1 38 1
M  V30 42 1 39 3
M  V30 43 1 40 3
M  V30 44 1 41 6
M  V30 45 1 42 7
M  V30 46 1 8 43 CFG=3
M  V30 47 1 44 11
M  V30 48 1 45 11
M  V30 49 1 46 13
M  V30 50 1 47 13
M  V30 51 1 48 14
M  V30 52 1 49 15
M  V30 53 1 50 16
M  V30 54 1 51 16
M  V30 55 1 52 16
M  V30 56 1 53 17
M  V30 57 1 54 17
M  V30 58 1 55 18
M  V30 59 1 56 18
M  V30 60 1 57 20
M  V30 61 1 22 58 CFG=3
M  V30 62 1 59 24
M  V30 63 1 60 24
M  V30 64 1 61 25
M  V30 65 1 62 25
M  V30 66 1 26 63 CFG=3
M  V30 67 1 64 28
M  V30 68 1 65 28
M  V30 69 1 66 30
M  V30 70 1 67 30
M  V30 71 1 68 31
M  V30 72 1 69 31
M  V30 73 1 70 32
M  V30 74 1 71 33
M  V30 75 1 72 35
M  V30 76 1 73 36
M  V30 77 1 74 36
M  V30 78 1 75 36
M  V30 79 1 76 25
M  V30 80 1 4 77 CFG=1
M  V30 81 1 10 78 CFG=1
M  V30 END BOND
M  V30 END CTAB
M  END
>  <i_epik_Tot_Q>  (1) 
2

>  <i_epik_Tot_abs_Q>  (1) 
4

>  <i_i_glide_confnum>  (1) 
857

>  <i_i_glide_lignum>  (1) 
154

>  <i_i_glide_posenum>  (1) 
207

>  <i_i_glide_rotatable_bonds>  (1) 
12

>  <i_lp_mmshare_version>  (1) 
72125

>  <i_m_source_file_index>  (1) 
77

>  <i_f3d_flags>  (1) 
0

>  <num_sample>  (1) 
100

>  <b_lp_Chiralities_Consistent>  (1) 
1

>  <r_epik_Charging_Adjusted_Penalty>  (1) 
2.7385366295040585

>  <r_epik_Ionization_Penalty>  (1) 
1.4403839023663505

>  <r_epik_Ionization_Penalty_Charging>  (1) 
1.4088334024277234

>  <r_epik_Ionization_Penalty_Neutral>  (1) 
0.03155049993862722

>  <r_epik_State_Penalty>  (1) 
1.3297032270763354

>  <r_glide_ring_energy>  (1) 
0.68305203791256597

>  <r_i_docking_score>  (1) 
-6.1752186864619869

>  <r_i_glide_ecoul>  (1) 
-15.42448214896595

>  <r_i_glide_eff_state_penalty>  (1) 
1.3297032270763354

>  <r_i_glide_einternal>  (1) 
19.421389331473321

>  <r_i_glide_emodel>  (1) 
-40.92656095173394

>  <r_i_glide_emodel_strain>  (1) 
5.1272820201040901

>  <r_i_glide_energy>  (1) 
-34.147329256409577

>  <r_i_glide_erotb>  (1) 
0.46638165269772919

>  <r_i_glide_esite>  (1) 
-0.24469565692980044

>  <r_i_glide_evdw>  (1) 
-18.722847107443624

>  <r_i_glide_gscore>  (1) 
-7.5049219135383227

>  <r_i_glide_gscore_strain>  (1) 
0.28182050502602252

>  <r_i_glide_hbond>  (1) 
-0.55293912071986662

>  <r_i_glide_ligand_efficiency>  (1) 
-0.17153385240172186

>  <r_i_glide_ligand_efficiency_ln>  (1) 
-1.3472658822572723

>  <r_i_glide_ligand_efficiency_sa>  (1) 
-0.56639230135311447

>  <r_i_glide_lipo>  (1) 
-2.7928129009660427

>  <r_i_glide_metal>  (1) 
-0

>  <r_i_glide_rewards>  (1) 
-1.4128617149292912

>  <r_lp_Energy>  (1) 
79.955849000000001

>  <r_lp_tautomer_probability>  (1) 
0.99995000000000001

>  <s_epik_Chemistry_Notes>  (1) 
This compound contains an acetal/aminal-like group ( X-CH(R)-Y where X, Y are N, S, or O) that may be acid/base labile, releasing an aldehyde.

>  <s_epik_cmdline>  (1) 
J2VwaWtfcHl0aG9uJywgJy1waHQnLCAnMS4wJywgJy1waCcsICc3LjQnLCAnLXRuJywgJzgnLCAnLW1hJywgJzUwMCcsICctaW1hZScsICc8aW5maWxlLm1hZT4nLCAnLW9tYWUnLCAnPG91dGZpbGUubWFlPic=

>  <s_epik_input>  (1) 
Tz1DKFtDSDNdKWMoYzFbT0hdKVtjSF1bY0hdYyhjMTIpYzNjKFtjSF1uMilbQ0gyXVtDSDJdTihbQ0gyXTMpW0NIMl1bQ0gyXVtDSDJdW0NIMl1OKFtDSDJdW09IXSlbQ0BIXShbQ0gzXSlbQ0BASF0oW0NIMl1bTkgyXSlbQ0BIXTRbQ0gyXVtDSF09W0NIXVtDSF09W0NIXTQ=

>  <s_glide_docking_method>  (1) 
confgen

>  <s_i_glide_gridfile>  (1) 
gpcr_drd2_6luq_protein_autoprepared_prepared

>  <s_lp_Force_Field>  (1) 
S-OPLS

>  <s_lp_Variant>  (1) 
DiffSBDD_76_num_sample_100-3

>  <s_m_source_file>  (1) 
generated__ligand_DiffSBDD_2026-05-06_prepared.sdf

>  <GenAI_Model>  (1) 
DiffSBDD

>  <Protein>  (1) 
generic_title2

$$$$
DiffSBDD_90_num_sample_100
     RDKit          3D

  0  0  0  0  0  0  0  0  0  0999 V3000
M  V30 BEGIN CTAB
M  V30 COUNTS 61 65 0 0 1
M  V30 BEGIN ATOM
M  V30 1 C 8.413797 5.797919 -21.144769 0
M  V30 2 C 8.079773 5.465457 -17.931566 0
M  V30 3 C 9.221827 6.641830 -7.250068 0
M  V30 4 S 7.883383 6.214594 -22.751537 0
M  V30 5 C 6.299767 5.870409 -16.280443 0
M  V30 6 C 5.911254 6.303469 -18.633043 0
M  V30 7 C 5.429999 6.297315 -17.320489 0
M  V30 8 C 9.067305 5.803624 -8.532995 0
M  V30 9 C 11.312447 8.018918 -7.756682 0
M  V30 10 C 10.799566 7.295630 -5.390899 0
M  V30 11 N 9.034903 6.569304 -9.813547 0 CFG=1 CHG=1
M  V30 12 C 9.830226 7.830558 -9.852361 0
M  V30 13 C 6.758876 5.137666 -11.335088 0
M  V30 14 C 8.038387 5.058256 -14.214497 0
M  V30 15 C 7.187498 5.901989 -18.915475 0
M  V30 16 C 9.221714 5.725153 -11.031042 0
M  V30 17 C 6.301102 6.671999 -22.145623 0
M  V30 18 C 5.072973 6.765000 -19.894712 0
M  V30 19 C 5.852140 5.862890 -14.951059 0
M  V30 20 C 11.251123 7.735408 -9.265262 0
M  V30 21 N 6.266658 6.488242 -20.814357 0 CHG=1
M  V30 22 C 5.144632 7.187825 -22.936756 0
M  V30 23 C 10.689444 6.922619 -6.876444 0 CFG=1
M  V30 24 C 8.487235 5.049795 -15.552072 0
M  V30 25 C 7.629605 5.453841 -16.586292 0
M  V30 26 C 6.148460 5.493892 -12.497949 0
M  V30 27 C 8.166054 4.607147 -11.170165 0
M  V30 28 C 6.705034 5.462151 -13.900172 0
M  V30 29 C 7.406613 6.014847 -20.250718 0
M  V30 30 H 9.413921 5.429936 -20.967964 0
M  V30 31 H 9.083732 5.158484 -18.185939 0
M  V30 32 H 8.771226 6.067037 -6.440076 0
M  V30 33 H 8.636163 7.561073 -7.295957 0
M  V30 34 H 4.421441 6.617323 -17.101869 0
M  V30 35 H 8.112997 5.283153 -8.447543 0
M  V30 36 H 9.835652 5.029982 -8.573091 0
M  V30 37 H 12.358008 8.146009 -7.474836 0
M  V30 38 H 10.829850 8.972689 -7.545732 0
M  V30 39 H 10.235171 8.202607 -5.174028 0
M  V30 40 H 10.406408 6.500825 -4.755182 0
M  V30 41 H 11.834764 7.464747 -5.095073 0
M  V30 42 H 9.890933 8.182552 -10.882432 0
M  V30 43 H 9.270846 8.610724 -9.334328 0
M  V30 44 H 6.195641 5.236207 -10.416069 0
M  V30 45 H 8.717935 4.764703 -13.458141 0
M  V30 46 H 10.223106 5.295797 -11.045493 0
M  V30 47 H 9.164978 6.363893 -11.912988 0
M  V30 48 H 4.235423 6.109524 -20.136453 0
M  V30 49 H 4.819465 7.825658 -19.889883 0
M  V30 50 H 4.847592 6.169311 -14.729298 0
M  V30 51 H 11.712810 6.779905 -9.491595 0
M  V30 52 H 11.867839 8.486135 -9.762125 0
M  V30 53 H 4.628341 7.960783 -22.367048 0
M  V30 54 H 5.527135 7.615417 -23.861986 0
M  V30 55 H 11.264316 6.005177 -7.012999 0
M  V30 56 H 9.498221 4.741657 -15.777769 0
M  V30 57 H 5.131605 5.849953 -12.424256 0
M  V30 58 H 8.135275 4.066190 -10.236305 0
M  V30 59 H 8.413041 3.788145 -11.840746 0
M  V30 60 H 4.469968 6.358814 -23.152771 0
M  V30 61 H 8.074672 6.937972 -9.847062 0
M  V30 END ATOM
M  V30 BEGIN BOND
M  V30 1 1 4 1
M  V30 2 2 7 5
M  V30 3 1 7 6
M  V30 4 1 8 3
M  V30 5 1 11 8
M  V30 6 1 12 11
M  V30 7 1 15 2
M  V30 8 2 15 6
M  V30 9 1 16 11
M  V30 10 1 17 4
M  V30 11 1 18 6
M  V30 12 1 19 5
M  V30 13 1 20 9
M  V30 14 1 20 12
M  V30 15 2 21 17
M  V30 16 1 21 18
M  V30 17 1 22 17
M  V30 18 1 23 3
M  V30 19 1 23 9
M  V30 20 1 23 10
M  V30 21 2 24 14
M  V30 22 2 25 2
M  V30 23 1 25 5
M  V30 24 1 25 24
M  V30 25 2 26 13
M  V30 26 1 27 13
M  V30 27 1 27 16
M  V30 28 1 28 14
M  V30 29 2 28 19
M  V30 30 1 28 26
M  V30 31 2 29 1
M  V30 32 1 29 15
M  V30 33 1 29 21
M  V30 34 1 30 1
M  V30 35 1 31 2
M  V30 36 1 32 3
M  V30 37 1 33 3
M  V30 38 1 34 7
M  V30 39 1 35 8
M  V30 40 1 36 8
M  V30 41 1 37 9
M  V30 42 1 38 9
M  V30 43 1 39 10
M  V30 44 1 40 10
M  V30 45 1 41 10
M  V30 46 1 42 12
M  V30 47 1 43 12
M  V30 48 1 44 13
M  V30 49 1 45 14
M  V30 50 1 46 16
M  V30 51 1 47 16
M  V30 52 1 48 18
M  V30 53 1 49 18
M  V30 54 1 50 19
M  V30 55 1 51 20
M  V30 56 1 52 20
M  V30 57 1 53 22
M  V30 58 1 54 22
M  V30 59 1 23 55 CFG=1
M  V30 60 1 56 24
M  V30 61 1 57 26
M  V30 62 1 58 27
M  V30 63 1 59 27
M  V30 64 1 60 22
M  V30 65 1 11 61 CFG=3
M  V30 END BOND
M  V30 END CTAB
M  END
>  <i_epik_Tot_Q>  (1) 
2

>  <i_epik_Tot_abs_Q>  (1) 
2

>  <i_i_glide_confnum>  (1) 
263

>  <i_i_glide_lignum>  (1) 
184

>  <i_i_glide_posenum>  (1) 
228

>  <i_i_glide_rotatable_bonds>  (1) 
4

>  <i_lp_mmshare_version>  (1) 
72125

>  <i_m_source_file_index>  (1) 
91

>  <i_f3d_flags>  (1) 
0

>  <num_sample>  (1) 
100

>  <b_lp_Chiralities_Consistent>  (1) 
1

>  <r_epik_Charging_Adjusted_Penalty>  (1) 
0.0021252633397680827

>  <r_epik_Ionization_Penalty>  (1) 
0.002125263340211697

>  <r_epik_Ionization_Penalty_Charging>  (1) 
0.0021252633397680827

>  <r_epik_Ionization_Penalty_Neutral>  (1) 
4.4361447992621368e-13

>  <r_epik_State_Penalty>  (1) 
-0

>  <r_glide_ring_energy>  (1) 
1.4535170685106169

>  <r_i_docking_score>  (1) 
-6.1734683756219946

>  <r_i_glide_ecoul>  (1) 
-6.5247572068781476

>  <r_i_glide_eff_state_penalty>  (1) 
-0

>  <r_i_glide_einternal>  (1) 
9.559243207074779

>  <r_i_glide_emodel>  (1) 
-49.17866504520164

>  <r_i_glide_emodel_strain>  (1) 
0.010848683336575959

>  <r_i_glide_energy>  (1) 
-35.391590303096351

>  <r_i_glide_erotb>  (1) 
0.47996519481946287

>  <r_i_glide_esite>  (1) 
-0.10000000000000001

>  <r_i_glide_evdw>  (1) 
-28.866833096218201

>  <r_i_glide_gscore>  (1) 
-6.1734683756219946

>  <r_i_glide_gscore_strain>  (1) 
0

>  <r_i_glide_hbond>  (1) 
-0.19742052045205988

>  <r_i_glide_ligand_efficiency>  (1) 
-0.21287821984903429

>  <r_i_glide_ligand_efficiency_ln>  (1) 
-1.4135677123665593

>  <r_i_glide_ligand_efficiency_sa>  (1) 
-0.65402933666423912

>  <r_i_glide_lipo>  (1) 
-2.3227151552104268

>  <r_i_glide_metal>  (1) 
-0

>  <r_i_glide_rewards>  (1) 
-1.6112426589363373

>  <r_lp_Energy>  (1) 
49.647815999999999

>  <r_lp_tautomer_probability>  (1) 
1

>  <s_epik_cmdline>  (1) 
J2VwaWtfcHl0aG9uJywgJy1waHQnLCAnMS4wJywgJy1waCcsICc3LjQnLCAnLXRuJywgJzgnLCAnLW1hJywgJzUwMCcsICctaW1hZScsICc8aW5maWxlLm1hZT4nLCAnLW9tYWUnLCAnPG91dGZpbGUubWFlPic=

>  <s_epik_input>  (1) 
W0NIMl09QzFTW0NIXT1DMk4xW0NIMl1jKFtjSF0zKWMyW2NIXWMoYzM0KVtjSF1bY0hdYyhbY0hdNCkvW0NIXT1bQ0hdXFtDSDJdW0NIMl1ONVtDSDJdW0NIMl1bQ0BIXShbQ0gzXSlbQ0gyXVtDSDJdW0NIMl01

>  <s_glide_docking_method>  (1) 
confgen

>  <s_i_glide_gridfile>  (1) 
gpcr_drd2_6luq_protein_autoprepared_prepared

>  <s_lp_Force_Field>  (1) 
S-OPLS

>  <s_lp_Variant>  (1) 
DiffSBDD_90_num_sample_100-4

>  <s_m_source_file>  (1) 
generated__ligand_DiffSBDD_2026-05-06_prepared.sdf

>  <GenAI_Model>  (1) 
DiffSBDD

>  <Protein>  (1) 
generic_title2

$$$$
DiffSBDD_72_num_sample_100
     RDKit          3D

  0  0  0  0  0  0  0  0  0  0999 V3000
M  V30 BEGIN CTAB
M  V30 COUNTS 32 34 0 0 1
M  V30 BEGIN ATOM
M  V30 1 C 11.852679 6.902733 -2.744657 0
M  V30 2 C 10.931568 7.404062 -8.890309 0
M  V30 3 C 11.792389 8.743656 -4.878525 0
M  V30 4 C 11.434845 6.489762 -4.021306 0
M  V30 5 C 10.970626 6.921712 -6.471725 0 CFG=1
M  V30 6 C 9.448850 6.655530 -6.638098 0
M  V30 7 N 11.449256 7.644301 -7.639674 0
M  V30 8 C 12.243867 8.233241 -2.532141 0
M  V30 9 C 11.598451 8.011460 -10.054221 0
M  V30 10 C 11.405134 7.402238 -5.091656 0
M  V30 11 F 12.648428 8.629273 -1.304973 0
M  V30 12 C 12.215094 9.153985 -3.596462 0
M  V30 13 C 9.121255 5.965122 -7.996773 0
M  V30 14 C 10.625919 7.369307 -11.157599 0
M  V30 15 C 9.480756 6.461887 -10.509702 0
M  V30 16 C 9.897845 6.652035 -9.105081 0
M  V30 17 H 11.874235 6.195371 -1.928290 0
M  V30 18 H 11.772272 9.451979 -5.693758 0
M  V30 19 H 11.137823 5.466267 -4.183167 0
M  V30 20 H 11.450028 5.945686 -6.563502 0
M  V30 21 H 9.069172 6.051220 -5.818667 0
M  V30 22 H 8.911645 7.603648 -6.579955 0
M  V30 23 H 11.545115 9.099635 -10.020194 0
M  V30 24 H 12.516743 10.169301 -3.429068 0
M  V30 25 H 9.403233 4.912870 -7.976777 0
M  V30 26 H 8.053306 6.009374 -8.204437 0
M  V30 27 H 11.203459 6.783696 -11.874004 0
M  V30 28 H 10.157363 8.169085 -11.732161 0
M  V30 29 H 8.479057 6.846967 -10.692946 0
M  V30 30 H 9.545546 5.415233 -10.808370 0
M  V30 31 H 12.632895 7.681711 -10.149747 0
M  V30 32 H 12.278701 8.209751 -7.538913 0
M  V30 END ATOM
M  V30 BEGIN BOND
M  V30 1 2 4 1
M  V30 2 1 6 5
M  V30 3 1 7 2
M  V30 4 1 7 5
M  V30 5 1 8 1
M  V30 6 1 9 2
M  V30 7 2 10 3
M  V30 8 1 10 4
M  V30 9 1 10 5
M  V30 10 1 11 8
M  V30 11 1 12 3
M  V30 12 2 12 8
M  V30 13 1 13 6
M  V30 14 1 14 9
M  V30 15 1 15 14
M  V30 16 2 16 2
M  V30 17 1 16 13
M  V30 18 1 16 15
M  V30 19 1 17 1
M  V30 20 1 18 3
M  V30 21 1 19 4
M  V30 22 1 5 20 CFG=3
M  V30 23 1 21 6
M  V30 24 1 22 6
M  V30 25 1 23 9
M  V30 26 1 24 12
M  V30 27 1 25 13
M  V30 28 1 26 13
M  V30 29 1 27 14
M  V30 30 1 28 14
M  V30 31 1 29 15
M  V30 32 1 30 15
M  V30 33 1 31 9
M  V30 34 1 32 7
M  V30 END BOND
M  V30 END CTAB
M  END
>  <i_epik_Tot_Q>  (1) 
0

>  <i_epik_Tot_abs_Q>  (1) 
0

>  <i_i_glide_confnum>  (1) 
4

>  <i_i_glide_lignum>  (1) 
144

>  <i_i_glide_posenum>  (1) 
345

>  <i_i_glide_rotatable_bonds>  (1) 
1

>  <i_lp_mmshare_version>  (1) 
72125

>  <i_m_source_file_index>  (1) 
73

>  <i_f3d_flags>  (1) 
0

>  <num_sample>  (1) 
100

>  <b_lp_Chiralities_Consistent>  (1) 
1

>  <r_epik_Charging_Adjusted_Penalty>  (1) 
0.00012261153731157732

>  <r_epik_Ionization_Penalty>  (1) 
0.00096767274994002245

>  <r_epik_Ionization_Penalty_Charging>  (1) 
0.00012261153731157732

>  <r_epik_Ionization_Penalty_Neutral>  (1) 
0.00084506121262844516

>  <r_epik_State_Penalty>  (1) 
-0

>  <r_glide_ring_energy>  (1) 
0

>  <r_i_docking_score>  (1) 
-6.1673314018802552

>  <r_i_glide_ecoul>  (1) 
-0.68512357157051174

>  <r_i_glide_eff_state_penalty>  (1) 
-0

>  <r_i_glide_einternal>  (1) 
0.29201568513832721

>  <r_i_glide_emodel>  (1) 
-40.145165782476717

>  <r_i_glide_emodel_strain>  (1) 
0.047802910127430209

>  <r_i_glide_energy>  (1) 
-28.210743788737336

>  <r_i_glide_erotb>  (1) 
0.35536468767402363

>  <r_i_glide_esite>  (1) 
0

>  <r_i_glide_evdw>  (1) 
-27.525620217166825

>  <r_i_glide_gscore>  (1) 
-6.1673314018802552

>  <r_i_glide_gscore_strain>  (1) 
0

>  <r_i_glide_hbond>  (1) 
0

>  <r_i_glide_ligand_efficiency>  (1) 
-0.38545821261751595

>  <r_i_glide_ligand_efficiency_ln>  (1) 
-1.6347743833095907

>  <r_i_glide_ligand_efficiency_sa>  (1) 
-0.97129383186332396

>  <r_i_glide_lipo>  (1) 
-2.0960314881796962

>  <r_i_glide_metal>  (1) 
-0

>  <r_i_glide_rewards>  (1) 
-2.9476150547806643

>  <r_lp_Energy>  (1) 
12.197267

>  <r_lp_tautomer_probability>  (1) 
1

>  <s_epik_Chemistry_Notes>  (1) 
This compound has an imine and may undergo hydrolysis.

>  <s_epik_cmdline>  (1) 
J2VwaWtfcHl0aG9uJywgJy1waHQnLCAnMS4wJywgJy1waCcsICc3LjQnLCAnLXRuJywgJzgnLCAnLW1hJywgJzUwMCcsICctaW1hZScsICc8aW5maWxlLm1hZT4nLCAnLW9tYWUnLCAnPG91dGZpbGUubWFlPic=

>  <s_epik_input>  (1) 
RmMxW2NIXVtjSF1jKFtjSF1bY0hdMSlbQ0BIXShOMilbQ0gyXVtDSDJdW0NASF0oQz0yMylbQ0gyXVtDSDJdW0NIMl0z

>  <s_glide_docking_method>  (1) 
confgen

>  <s_i_glide_gridfile>  (1) 
gpcr_drd2_6luq_protein_autoprepared_prepared

>  <s_lp_Force_Field>  (1) 
S-OPLS

>  <s_lp_Variant>  (1) 
DiffSBDD_72_num_sample_100-1

>  <s_m_source_file>  (1) 
generated__ligand_DiffSBDD_2026-05-06_prepared.sdf

>  <GenAI_Model>  (1) 
DiffSBDD

>  <Protein>  (1) 
generic_title2

$$$$
DiffSBDD_30_num_sample_100
     RDKit          3D

  0  0  0  0  0  0  0  0  0  0999 V3000
M  V30 BEGIN CTAB
M  V30 COUNTS 49 51 0 0 1
M  V30 BEGIN ATOM
M  V30 1 C 5.659744 6.111685 -14.817266 0
M  V30 2 C 4.765188 7.299653 -18.395198 0
M  V30 3 S 7.591735 7.088877 -12.292144 0
M  V30 4 C 9.064485 6.614168 -11.478546 0
M  V30 5 F 11.350789 9.253073 -4.489387 0
M  V30 6 C 6.570655 5.097129 -14.086152 0 CFG=1
M  V30 7 C 7.867576 5.801267 -13.579410 0 CFG=2
M  V30 8 C 3.727667 7.159386 -17.304887 0
M  V30 9 C 5.769053 4.253104 -13.050492 0
M  V30 10 C 6.008081 6.310911 -16.300789 0
M  V30 11 C 10.655867 6.969288 -9.639992 0
M  V30 12 C 10.822466 7.593302 -8.277082 0
M  V30 13 C 10.337634 7.597454 -5.891718 0
M  V30 14 N 9.434874 7.287608 -10.379542 0
M  V30 15 C 11.175626 8.716790 -5.720349 0
M  V30 16 F 9.358734 5.958600 -7.327087 0
M  V30 17 C 8.887158 3.462542 -12.829171 0
M  V30 18 C 5.174042 7.398671 -16.945066 0
M  V30 19 C 10.159836 7.038087 -7.167259 0
M  V30 20 N 9.703142 5.594488 -12.035855 0 CHG=1
M  V30 21 C 11.660941 8.714235 -8.108203 0
M  V30 22 C 11.834840 9.275351 -6.826804 0
M  V30 23 O 5.434830 4.964030 -11.881628 0
M  V30 24 C 9.126558 4.931800 -13.199840 0 CFG=2
M  V30 25 H 4.634839 5.769201 -14.776000 0
M  V30 26 H 5.650551 7.071697 -14.301397 0
M  V30 27 H 4.762290 8.216714 -18.980102 0
M  V30 28 H 5.041639 6.400476 -18.942205 0
M  V30 29 H 6.881599 4.377720 -14.845315 0
M  V30 30 H 8.219022 6.386727 -14.428391 0
M  V30 31 H 3.319491 6.169713 -17.110326 0
M  V30 32 H 3.033279 7.984887 -17.162007 0
M  V30 33 H 6.297109 3.350444 -12.758362 0
M  V30 34 H 4.841705 3.889300 -13.491669 0
M  V30 35 H 7.057136 6.569324 -16.423564 0
M  V30 36 H 5.857103 5.376941 -16.842940 0
M  V30 37 H 10.634839 5.894415 -9.476035 0
M  V30 38 H 11.523803 7.194254 -10.260034 0
M  V30 39 H 9.834837 7.164591 -5.044041 0
M  V30 40 H 8.819179 8.006367 -10.006421 0
M  V30 41 H 8.361897 2.921037 -13.615139 0
M  V30 42 H 9.834811 2.949933 -12.671499 0
M  V30 43 H 8.329177 3.369498 -11.897186 0
M  V30 44 H 5.409573 8.398504 -16.583236 0
M  V30 45 H 12.174103 9.140627 -8.958374 0
M  V30 46 H 12.477031 10.131172 -6.691656 0
M  V30 47 H 5.051025 4.374062 -11.250053 0
M  V30 48 H 9.845649 4.971153 -14.018328 0
M  V30 49 H 10.567723 5.246466 -11.652889 0
M  V30 END ATOM
M  V30 BEGIN BOND
M  V30 1 1 4 3
M  V30 2 1 6 1
M  V30 3 1 7 3
M  V30 4 1 7 6
M  V30 5 1 8 2
M  V30 6 1 9 6
M  V30 7 1 10 1
M  V30 8 1 12 11
M  V30 9 1 14 4
M  V30 10 1 14 11
M  V30 11 1 15 5
M  V30 12 2 15 13
M  V30 13 1 18 2
M  V30 14 1 18 8
M  V30 15 1 18 10
M  V30 16 2 19 12
M  V30 17 1 19 13
M  V30 18 1 19 16
M  V30 19 2 20 4
M  V30 20 1 21 12
M  V30 21 1 22 15
M  V30 22 2 22 21
M  V30 23 1 23 9
M  V30 24 1 24 7
M  V30 25 1 24 17
M  V30 26 1 24 20
M  V30 27 1 25 1
M  V30 28 1 26 1
M  V30 29 1 27 2
M  V30 30 1 28 2
M  V30 31 1 6 29 CFG=3
M  V30 32 1 7 30 CFG=3
M  V30 33 1 31 8
M  V30 34 1 32 8
M  V30 35 1 33 9
M  V30 36 1 34 9
M  V30 37 1 35 10
M  V30 38 1 36 10
M  V30 39 1 37 11
M  V30 40 1 38 11
M  V30 41 1 39 13
M  V30 42 1 40 14
M  V30 43 1 41 17
M  V30 44 1 42 17
M  V30 45 1 43 17
M  V30 46 1 44 18
M  V30 47 1 45 21
M  V30 48 1 46 22
M  V30 49 1 47 23
M  V30 50 1 24 48 CFG=3
M  V30 51 1 49 20
M  V30 END BOND
M  V30 END CTAB
M  END
>  <i_epik_Tot_Q>  (1) 
1

>  <i_epik_Tot_abs_Q>  (1) 
1

>  <i_i_glide_confnum>  (1) 
199

>  <i_i_glide_lignum>  (1) 
55

>  <i_i_glide_posenum>  (1) 
393

>  <i_i_glide_rotatable_bonds>  (1) 
9

>  <i_lp_mmshare_version>  (1) 
72125

>  <i_m_source_file_index>  (1) 
31

>  <i_f3d_flags>  (1) 
0

>  <num_sample>  (1) 
100

>  <b_lp_Chiralities_Consistent>  (1) 
1

>  <r_epik_Charging_Adjusted_Penalty>  (1) 
0.10703469102833196

>  <r_epik_Ionization_Penalty>  (1) 
0.069318960315332093

>  <r_epik_Ionization_Penalty_Charging>  (1) 
0.03959288354667883

>  <r_epik_Ionization_Penalty_Neutral>  (1) 
0.029726076768653267

>  <r_epik_State_Penalty>  (1) 
0.06744180748165314

>  <r_glide_ring_energy>  (1) 
0

>  <r_i_docking_score>  (1) 
-6.1567939671506711

>  <r_i_glide_ecoul>  (1) 
-1.9792895169867351

>  <r_i_glide_eff_state_penalty>  (1) 
0.06744180748165314

>  <r_i_glide_einternal>  (1) 
4.0737843306320309

>  <r_i_glide_emodel>  (1) 
-47.650984867702824

>  <r_i_glide_emodel_strain>  (1) 
0.34789187693285584

>  <r_i_glide_energy>  (1) 
-33.83530554356269

>  <r_i_glide_erotb>  (1) 
1.0592382888714553

>  <r_i_glide_esite>  (1) 
-0.20072484666983789

>  <r_i_glide_evdw>  (1) 
-31.856016026575958

>  <r_i_glide_gscore>  (1) 
-6.2242357746323238

>  <r_i_glide_gscore_strain>  (1) 
0

>  <r_i_glide_hbond>  (1) 
-0.12096991628292449

>  <r_i_glide_ligand_efficiency>  (1) 
-0.25653308196461128

>  <r_i_glide_ligand_efficiency_ln>  (1) 
-1.4736033132052628

>  <r_i_glide_ligand_efficiency_sa>  (1) 
-0.73996945446619167

>  <r_i_glide_lipo>  (1) 
-2.7555468460333792

>  <r_i_glide_metal>  (1) 
-0

>  <r_i_glide_rewards>  (1) 
-2.3165382256408287

>  <r_lp_Energy>  (1) 
13.443218999999999

>  <s_epik_Chemistry_Notes>  (1) 
This compound has an imine and may undergo hydrolysis.

>  <s_epik_cmdline>  (1) 
J2VwaWtfcHl0aG9uJywgJy1waHQnLCAnMS4wJywgJy1waCcsICc3LjQnLCAnLXRuJywgJzgnLCAnLW1hJywgJzUwMCcsICctaW1hZScsICc8aW5maWxlLm1hZT4nLCAnLW9tYWUnLCAnPG91dGZpbGUubWFlPic=

>  <s_epik_input>  (1) 
W0NIMl0xW0NIMl1bQ0hdMVtDSDJdW0NIMl1bQ0BIXShbQ0gyXVtPSF0pW0NAQEhdKFMyKVtDQEhdKFtDSDNdKU49QzJbTkhdW0NIMl1jM2MoRilbY0hdYyhGKVtjSF1bY0hdMw==

>  <s_glide_docking_method>  (1) 
confgen

>  <s_i_glide_gridfile>  (1) 
gpcr_drd2_6luq_protein_autoprepared_prepared

>  <s_lp_Force_Field>  (1) 
S-OPLS

>  <s_lp_Variant>  (1) 
DiffSBDD_30_num_sample_100-1

>  <s_m_source_file>  (1) 
generated__ligand_DiffSBDD_2026-05-06_prepared.sdf

>  <GenAI_Model>  (1) 
DiffSBDD

>  <Protein>  (1) 
generic_title2

$$$$
DiffSBDD_35_num_sample_100
     RDKit          3D

  0  0  0  0  0  0  0  0  0  0999 V3000
M  V30 BEGIN CTAB
M  V30 COUNTS 57 63 0 0 1
M  V30 BEGIN ATOM
M  V30 1 C 9.727876 6.211098 -7.087499 0
M  V30 2 C 5.913719 7.069841 -16.790436 0
M  V30 3 N 8.131500 5.405365 -13.131107 0
M  V30 4 C 7.435267 3.682612 -17.138010 0
M  V30 5 C 6.489322 4.427425 -19.272553 0
M  V30 6 S 8.234697 2.330973 -16.404865 0
M  V30 7 C 9.178081 5.411054 -9.423882 0
M  V30 8 C 8.152230 0.212582 -20.187499 0
M  V30 9 C 11.167358 8.412333 -8.091870 0
M  V30 10 C 9.834890 6.399404 -8.475810 0
M  V30 11 C 6.353252 5.851542 -17.379133 0
M  V30 12 C 5.873352 6.439130 -12.341723 0
M  V30 13 C 7.272076 5.235647 -15.189538 0
M  V30 14 N 6.118281 5.586421 -18.672734 0
M  V30 15 C 7.667332 2.051953 -18.934892 0
M  V30 16 C 8.278019 1.379483 -17.831489 0
M  V30 17 C 7.034850 4.917530 -16.562492 0
M  V30 18 N 8.749754 -0.494758 -19.218584 0
M  V30 19 C 8.806459 0.104155 -18.019088 0
M  V30 20 C 7.163780 3.406846 -18.535287 0
M  V30 21 C 7.145131 6.564555 -13.214321 0 CFG=2
M  V30 22 C 11.057900 8.217713 -6.702289 0
M  V30 23 N 10.225759 6.589885 -11.312972 0 CHG=1
M  V30 24 C 8.507266 4.896446 -11.816752 0
M  V30 25 O 5.474574 7.714453 -11.891583 0
M  V30 26 N 7.609014 1.444987 -20.132037 0
M  V30 27 C 7.982530 4.367294 -14.221017 0
M  V30 28 C 6.155255 7.336490 -15.427682 0
M  V30 29 C 8.973203 5.981559 -10.832755 0 CFG=1
M  V30 30 C 10.338094 7.117869 -6.200771 0
M  V30 31 C 6.842147 6.392280 -14.660111 0
M  V30 32 C 10.555089 7.505918 -8.982528 0
M  V30 33 C 10.664715 7.731188 -10.480601 0
M  V30 34 H 9.176431 5.369507 -6.701774 0
M  V30 35 H 5.385128 7.795309 -17.391700 0
M  V30 36 H 6.248225 4.305190 -20.318063 0
M  V30 37 H 8.214548 5.107204 -9.010533 0
M  V30 38 H 9.799450 4.515131 -9.459135 0
M  V30 39 H 8.102510 -0.272403 -21.150975 0
M  V30 40 H 11.717870 9.259333 -8.475334 0
M  V30 41 H 6.038127 5.843224 -11.445801 0
M  V30 42 H 5.062027 5.957717 -12.888634 0
M  V30 43 H 9.275885 -0.438241 -17.211420 0
M  V30 44 H 7.663112 7.507217 -13.032483 0
M  V30 45 H 11.525079 8.913308 -6.020851 0
M  V30 46 H 10.938739 5.878753 -11.323227 0
M  V30 47 H 7.665465 4.351409 -11.388230 0
M  V30 48 H 9.299616 4.155142 -11.933552 0
M  V30 49 H 5.904478 7.870913 -11.050356 0
M  V30 50 H 7.364962 3.526334 -13.902610 0
M  V30 51 H 8.968954 4.052799 -14.556197 0
M  V30 52 H 5.812447 8.255024 -14.985969 0
M  V30 53 H 8.234786 6.775479 -10.770119 0
M  V30 54 H 10.252531 6.968928 -5.134326 0
M  V30 55 H 10.023746 8.569363 -10.734285 0
M  V30 56 H 11.696534 8.005758 -10.695660 0
M  V30 57 H 10.073385 6.900927 -12.262579 0
M  V30 END ATOM
M  V30 BEGIN BOND
M  V30 1 1 6 4
M  V30 2 2 10 1
M  V30 3 1 10 7
M  V30 4 1 11 2
M  V30 5 1 14 5
M  V30 6 2 14 11
M  V30 7 1 16 6
M  V30 8 1 16 15
M  V30 9 2 17 4
M  V30 10 1 17 11
M  V30 11 1 17 13
M  V30 12 2 18 8
M  V30 13 2 19 16
M  V30 14 1 19 18
M  V30 15 1 20 4
M  V30 16 2 20 5
M  V30 17 1 20 15
M  V30 18 1 21 3
M  V30 19 1 21 12
M  V30 20 1 22 9
M  V30 21 1 24 3
M  V30 22 1 25 12
M  V30 23 1 26 8
M  V30 24 2 26 15
M  V30 25 1 27 3
M  V30 26 1 27 13
M  V30 27 2 28 2
M  V30 28 1 29 7
M  V30 29 1 29 23
M  V30 30 1 29 24
M  V30 31 1 30 1
M  V30 32 2 30 22
M  V30 33 2 31 13
M  V30 34 1 31 21
M  V30 35 1 31 28
M  V30 36 2 32 9
M  V30 37 1 32 10
M  V30 38 1 33 23
M  V30 39 1 33 32
M  V30 40 1 34 1
M  V30 41 1 35 2
M  V30 42 1 36 5
M  V30 43 1 37 7
M  V30 44 1 38 7
M  V30 45 1 39 8
M  V30 46 1 40 9
M  V30 47 1 41 12
M  V30 48 1 42 12
M  V30 49 1 43 19
M  V30 50 1 21 44 CFG=3
M  V30 51 1 45 22
M  V30 52 1 46 23
M  V30 53 1 47 24
M  V30 54 1 48 24
M  V30 55 1 49 25
M  V30 56 1 50 27
M  V30 57 1 51 27
M  V30 58 1 52 28
M  V30 59 1 29 53 CFG=1
M  V30 60 1 54 30
M  V30 61 1 55 33
M  V30 62 1 56 33
M  V30 63 1 57 23
M  V30 END BOND
M  V30 END CTAB
M  END
>  <i_epik_Tot_Q>  (1) 
1

>  <i_epik_Tot_abs_Q>  (1) 
1

>  <i_i_glide_confnum>  (1) 
95

>  <i_i_glide_lignum>  (1) 
63

>  <i_i_glide_posenum>  (1) 
144

>  <i_i_glide_rotatable_bonds>  (1) 
4

>  <i_lp_mmshare_version>  (1) 
72125

>  <i_m_source_file_index>  (1) 
36

>  <i_f3d_flags>  (1) 
0

>  <num_sample>  (1) 
100

>  <b_lp_Chiralities_Consistent>  (1) 
1

>  <r_epik_Charging_Adjusted_Penalty>  (1) 
0.011867444856994655

>  <r_epik_Ionization_Penalty>  (1) 
0.012232925828486813

>  <r_epik_Ionization_Penalty_Charging>  (1) 
0.011867444856994655

>  <r_epik_Ionization_Penalty_Neutral>  (1) 
0.00036548097149215658

>  <r_epik_State_Penalty>  (1) 
-0

>  <r_glide_ring_energy>  (1) 
1.597824353548408

>  <r_i_docking_score>  (1) 
-6.1367742459034673

>  <r_i_glide_ecoul>  (1) 
-4.1815177754943891

>  <r_i_glide_eff_state_penalty>  (1) 
-0

>  <r_i_glide_einternal>  (1) 
3.4763755158539213

>  <r_i_glide_emodel>  (1) 
-61.323143929285756

>  <r_i_glide_emodel_strain>  (1) 
0.97160394394359173

>  <r_i_glide_energy>  (1) 
-42.472208411451064

>  <r_i_glide_erotb>  (1) 
0.29155208343933364

>  <r_i_glide_esite>  (1) 
-0.023586655502717432

>  <r_i_glide_evdw>  (1) 
-38.290690635956672

>  <r_i_glide_gscore>  (1) 
-6.1367742459034673

>  <r_i_glide_gscore_strain>  (1) 
0

>  <r_i_glide_hbond>  (1) 
-0.16

>  <r_i_glide_ligand_efficiency>  (1) 
-0.18596285593646872

>  <r_i_glide_ligand_efficiency_ln>  (1) 
-1.3647868177724214

>  <r_i_glide_ligand_efficiency_sa>  (1) 
-0.59648224452029164

>  <r_i_glide_lipo>  (1) 
-2.4932825666271805

>  <r_i_glide_metal>  (1) 
-0

>  <r_i_glide_rewards>  (1) 
-1.2096949090909104

>  <r_lp_Energy>  (1) 
68.826070000000001

>  <r_lp_tautomer_probability>  (1) 
1

>  <s_epik_cmdline>  (1) 
J2VwaWtfcHl0aG9uJywgJy1waHQnLCAnMS4wJywgJy1waCcsICc3LjQnLCAnLXRuJywgJzgnLCAnLW1hJywgJzUwMCcsICctaW1hZScsICc8aW5maWxlLm1hZT4nLCAnLW9tYWUnLCAnPG91dGZpbGUubWFlPic=

>  <s_epik_input>  (1) 
W2NIXTFbY0hdW2NIXVtjSF1jKGMxMilbQ0gyXVtOSF1bQ0BIXShbQ0gyXTIpW0NIMl1OKFtDQEBIXTNbQ0gyXVtPSF0pW0NIMl1jNGMzW2NIXVtjSF1jKGM0YzU2KW5bY0hdYzZjN2MoczUpW2NIXW5bY0hdbjc=

>  <s_glide_docking_method>  (1) 
confgen

>  <s_i_glide_gridfile>  (1) 
gpcr_drd2_6luq_protein_autoprepared_prepared

>  <s_lp_Force_Field>  (1) 
S-OPLS

>  <s_lp_Variant>  (1) 
DiffSBDD_35_num_sample_100-1

>  <s_m_source_file>  (1) 
generated__ligand_DiffSBDD_2026-05-06_prepared.sdf

>  <GenAI_Model>  (1) 
DiffSBDD

>  <Protein>  (1) 
generic_title2

$$$$
DiffSBDD_86_num_sample_100
     RDKit          3D

  0  0  0  0  0  0  0  0  0  0999 V3000
M  V30 BEGIN CTAB
M  V30 COUNTS 53 55 0 0 1
M  V30 BEGIN ATOM
M  V30 1 C 9.475758 4.601423 -16.357197 0
M  V30 2 O 9.514616 6.603342 -10.836559 0
M  V30 3 O 11.477263 8.858355 -7.966615 0
M  V30 4 C 11.087359 6.569396 -4.492828 0
M  V30 5 C 9.927496 7.670423 -6.462619 0 CFG=2
M  V30 6 C 9.090569 5.061196 -12.660981 0 CFG=2
M  V30 7 C 9.767443 7.944424 -10.415149 0
M  V30 8 C 12.586104 7.813672 -3.032564 0
M  V30 9 F 13.034899 10.105656 -3.492903 0
M  V30 10 C 12.397767 8.965140 -3.816403 0
M  V30 11 C 7.418869 5.933255 -14.523428 0
M  V30 12 O 7.038005 6.867570 -13.574826 0
M  V30 13 C 8.507659 4.931686 -14.086121 0 CFG=1
M  V30 14 F 8.414153 4.241096 -11.853835 0
M  V30 15 O 8.864947 8.569277 -6.293374 0
M  V30 16 C 11.083932 6.416894 -8.270609 0
M  V30 17 C 11.927286 6.618325 -3.367105 0
M  V30 18 C 7.206949 4.969762 -16.786331 0
M  V30 19 C 6.842987 5.939921 -15.733449 0
M  V30 20 C 10.886218 7.723388 -5.278960 0
M  V30 21 F 11.344428 10.051647 -5.667380 0
M  V30 22 C 10.531339 7.780460 -7.892687 0 CFG=2
M  V30 23 S 10.724902 4.634519 -17.450362 0
M  V30 24 C 8.990314 6.490018 -12.153597 0 CFG=1
M  V30 25 C 7.510212 6.850153 -12.235421 0
M  V30 26 C 11.542468 8.929366 -4.933871 0
M  V30 27 N 9.611203 4.969314 -15.047362 0
M  V30 28 C 12.867773 8.567436 -8.044520 0
M  V30 29 N 8.216994 4.182512 -16.729328 0
M  V30 30 C 9.434820 8.081847 -8.919823 0
M  V30 31 H 10.583155 5.654869 -4.743247 0
M  V30 32 H 9.419531 6.705798 -6.399972 0
M  V30 33 H 10.122516 4.710656 -12.613357 0
M  V30 34 H 10.797438 8.227768 -10.633093 0
M  V30 35 H 9.139555 8.648930 -10.958534 0
M  V30 36 H 13.235144 7.849687 -2.172156 0
M  V30 37 H 8.071862 3.932777 -14.148599 0
M  V30 38 H 8.138462 8.270676 -6.828917 0
M  V30 39 H 10.300268 5.682136 -8.462874 0
M  V30 40 H 11.720391 6.004797 -7.489347 0
M  V30 41 H 11.662836 6.569337 -9.179714 0
M  V30 42 H 12.069976 5.736603 -2.761027 0
M  V30 43 H 6.536415 4.965958 -17.649319 0
M  V30 44 H 6.068966 6.649083 -15.985918 0
M  V30 45 H 9.576360 7.143271 -12.793237 0
M  V30 46 H 6.895990 6.178737 -11.634269 0
M  V30 47 H 7.326688 7.849591 -11.846421 0
M  V30 48 H 10.520589 5.269579 -14.723181 0
M  V30 49 H 13.456663 9.369255 -7.602708 0
M  V30 50 H 13.180156 8.435330 -9.080725 0
M  V30 51 H 13.126589 7.674561 -7.491750 0
M  V30 52 H 8.636077 7.373281 -8.690227 0
M  V30 53 H 9.035365 9.080749 -8.752956 0
M  V30 END ATOM
M  V30 BEGIN BOND
M  V30 1 1 7 2
M  V30 2 1 10 8
M  V30 3 1 10 9
M  V30 4 1 12 11
M  V30 5 1 13 6
M  V30 6 1 13 11
M  V30 7 1 14 6
M  V30 8 1 15 5
M  V30 9 1 17 4
M  V30 10 2 17 8
M  V30 11 2 19 11
M  V30 12 1 19 18
M  V30 13 2 20 4
M  V30 14 1 20 5
M  V30 15 1 22 3 CFG=1
M  V30 16 1 22 5
M  V30 17 1 22 16
M  V30 18 2 23 1
M  V30 19 1 24 2
M  V30 20 1 24 6
M  V30 21 1 25 12
M  V30 22 1 25 24
M  V30 23 2 26 10
M  V30 24 1 26 20
M  V30 25 1 26 21
M  V30 26 1 27 1
M  V30 27 1 27 13
M  V30 28 1 28 3
M  V30 29 1 29 1
M  V30 30 2 29 18
M  V30 31 1 30 7
M  V30 32 1 30 22
M  V30 33 1 31 4
M  V30 34 1 5 32 CFG=3
M  V30 35 1 6 33 CFG=3
M  V30 36 1 34 7
M  V30 37 1 35 7
M  V30 38 1 36 8
M  V30 39 1 13 37 CFG=1
M  V30 40 1 38 15
M  V30 41 1 39 16
M  V30 42 1 40 16
M  V30 43 1 41 16
M  V30 44 1 42 17
M  V30 45 1 43 18
M  V30 46 1 44 19
M  V30 47 1 24 45 CFG=3
M  V30 48 1 46 25
M  V30 49 1 47 25
M  V30 50 1 48 27
M  V30 51 1 49 28
M  V30 52 1 50 28
M  V30 53 1 51 28
M  V30 54 1 52 30
M  V30 55 1 53 30
M  V30 END BOND
M  V30 END CTAB
M  END
>  <i_epik_Tot_Q>  (1) 
0

>  <i_epik_Tot_abs_Q>  (1) 
0

>  <i_i_glide_confnum>  (1) 
79

>  <i_i_glide_lignum>  (1) 
176

>  <i_i_glide_posenum>  (1) 
185

>  <i_i_glide_rotatable_bonds>  (1) 
8

>  <i_lp_mmshare_version>  (1) 
72125

>  <i_m_source_file_index>  (1) 
87

>  <i_f3d_flags>  (1) 
0

>  <num_sample>  (1) 
100

>  <b_lp_Chiralities_Consistent>  (1) 
1

>  <r_epik_Charging_Adjusted_Penalty>  (1) 
0

>  <r_epik_Ionization_Penalty>  (1) 
0.00043041881029206555

>  <r_epik_Ionization_Penalty_Charging>  (1) 
0

>  <r_epik_Ionization_Penalty_Neutral>  (1) 
0.00043041881029206555

>  <r_epik_State_Penalty>  (1) 
-0

>  <r_glide_ring_energy>  (1) 
0

>  <r_i_docking_score>  (1) 
-6.1323254464730423

>  <r_i_glide_ecoul>  (1) 
-5.1516500283148421

>  <r_i_glide_eff_state_penalty>  (1) 
-0

>  <r_i_glide_einternal>  (1) 
7.4236694693562084

>  <r_i_glide_emodel>  (1) 
-40.014821564467418

>  <r_i_glide_emodel_strain>  (1) 
0.69815632696451502

>  <r_i_glide_energy>  (1) 
-31.001558828193112

>  <r_i_glide_erotb>  (1) 
0.40494693264899051

>  <r_i_glide_esite>  (1) 
0

>  <r_i_glide_evdw>  (1) 
-25.849908799878268

>  <r_i_glide_gscore>  (1) 
-6.1323254464730423

>  <r_i_glide_gscore_strain>  (1) 
0

>  <r_i_glide_hbond>  (1) 
-0.14856479306386111

>  <r_i_glide_ligand_efficiency>  (1) 
-0.20441084821576808

>  <r_i_glide_ligand_efficiency_ln>  (1) 
-1.3933311584760393

>  <r_i_glide_ligand_efficiency_sa>  (1) 
-0.63515203214563498

>  <r_i_glide_lipo>  (1) 
-2.3928098645975635

>  <r_i_glide_metal>  (1) 
-0

>  <r_i_glide_rewards>  (1) 
-1.9306547772194689

>  <r_lp_Energy>  (1) 
48.950238999999996

>  <r_lp_tautomer_probability>  (1) 
1

>  <s_epik_Chemistry_Notes>  (1) 
This compound has an imine and may undergo hydrolysis.

>  <s_epik_cmdline>  (1) 
J2VwaWtfcHl0aG9uJywgJy1waHQnLCAnMS4wJywgJy1waCcsICc3LjQnLCAnLXRuJywgJzgnLCAnLW1hJywgJzUwMCcsICctaW1hZScsICc8aW5maWxlLm1hZT4nLCAnLW9tYWUnLCAnPG91dGZpbGUubWFlPic=

>  <s_epik_input>  (1) 
W0NIXTFbQ0hdPU5DKD1TKVtOSF1bQ0BIXShDPTEyKVtDQEhdKEYpW0NAQEhdKFtDSDJdTzIpT1tDSDJdW0NIMl1bQ0BAXShbQ0gzXSkoT1tDSDNdKVtDQEhdKFtPSF0pYyhjM0YpW2NIXVtjSF1bY0hdYzNG

>  <s_glide_docking_method>  (1) 
confgen

>  <s_i_glide_gridfile>  (1) 
gpcr_drd2_6luq_protein_autoprepared_prepared

>  <s_lp_Force_Field>  (1) 
S-OPLS

>  <s_lp_Variant>  (1) 
DiffSBDD_86_num_sample_100-1

>  <s_m_source_file>  (1) 
generated__ligand_DiffSBDD_2026-05-06_prepared.sdf

>  <GenAI_Model>  (1) 
DiffSBDD

>  <Protein>  (1) 
generic_title2

$$$$
DiffSBDD_31_num_sample_100
     RDKit          3D

  0  0  0  0  0  0  0  0  0  0999 V3000
M  V30 BEGIN CTAB
M  V30 COUNTS 50 53 0 0 1
M  V30 BEGIN ATOM
M  V30 1 C 9.564963 6.862583 -11.844521 0
M  V30 2 C 9.920192 6.987420 -9.341441 0
M  V30 3 C 10.660857 7.630664 -7.142856 0
M  V30 4 O 12.634836 7.612752 -1.872355 0
M  V30 5 C 7.655671 2.209013 -14.384458 0
M  V30 6 C 7.302652 3.237379 -13.292001 0 CFG=1
M  V30 7 C 11.834837 8.764157 -5.267800 0
M  V30 8 N 9.494242 6.325818 -10.487748 0
M  V30 9 C 11.132898 7.653595 -5.761232 0
M  V30 10 O 13.034886 9.769301 -3.491673 0
M  V30 11 S 9.746477 6.262309 -7.755438 0
M  V30 12 C 12.340975 8.736661 -3.955519 0
M  V30 13 C 8.153983 7.016941 -12.435064 0
M  V30 14 C 7.900379 4.653421 -13.493361 0 CFG=1
M  V30 15 C 8.270153 4.155685 -15.948256 0 CFG=1
M  V30 16 N 10.903486 8.569289 -8.061618 0
M  V30 17 Cl 8.018465 4.771995 -17.601310 0
M  V30 18 C 8.871516 5.006316 -10.506109 0
M  V30 19 C 7.653394 5.131150 -14.939855 0
M  V30 20 N 10.492623 8.195885 -9.330819 0
M  V30 21 C 12.143391 7.624757 -3.138516 0
M  V30 22 C 10.921579 6.546566 -4.925579 0
M  V30 23 C 11.434840 6.532977 -3.618158 0
M  V30 24 C 7.383972 5.676327 -12.430120 0
M  V30 25 C 7.652394 2.755866 -15.822749 0
M  V30 26 C 7.424839 5.120096 -10.986111 0
M  V30 27 Cl 5.542069 3.369313 -13.091668 0
M  V30 28 H 10.063491 7.831485 -11.845075 0
M  V30 29 H 10.180182 6.208912 -12.463514 0
M  V30 30 H 12.585911 8.455213 -1.448052 0
M  V30 31 H 6.987364 1.349546 -14.313209 0
M  V30 32 H 8.634836 1.802941 -14.161692 0
M  V30 33 H 7.677321 2.815121 -12.361504 0
M  V30 34 H 12.009378 9.624333 -5.898332 0
M  V30 35 H 13.434865 9.644723 -2.643221 0
M  V30 36 H 7.605047 7.742347 -11.832331 0
M  V30 37 H 8.205185 7.456570 -13.428185 0
M  V30 38 H 8.979111 4.551839 -13.377868 0
M  V30 39 H 9.348786 4.108999 -15.796966 0
M  V30 40 H 9.446468 4.334499 -11.143155 0
M  V30 41 H 8.877518 4.550083 -9.519708 0
M  V30 42 H 6.583597 5.239073 -15.125957 0
M  V30 43 H 8.093172 6.112253 -15.107696 0
M  V30 44 H 10.378620 5.703318 -5.286319 0
M  V30 45 H 11.274825 5.679619 -2.983406 0
M  V30 46 H 6.345223 5.912674 -12.661519 0
M  V30 47 H 6.634829 2.794204 -16.184834 0
M  V30 48 H 8.169271 2.057860 -16.481239 0
M  V30 49 H 6.872755 5.769298 -10.310839 0
M  V30 50 H 6.916451 4.168420 -10.873043 0
M  V30 END ATOM
M  V30 BEGIN BOND
M  V30 1 1 6 5
M  V30 2 1 8 1
M  V30 3 1 8 2
M  V30 4 1 9 3
M  V30 5 2 9 7
M  V30 6 1 11 2
M  V30 7 1 11 3
M  V30 8 1 12 7
M  V30 9 1 12 10
M  V30 10 1 13 1
M  V30 11 1 14 6
M  V30 12 2 16 3
M  V30 13 1 17 15
M  V30 14 1 18 8
M  V30 15 1 19 14
M  V30 16 1 19 15
M  V30 17 2 20 2
M  V30 18 1 20 16
M  V30 19 1 21 4
M  V30 20 2 21 12
M  V30 21 1 22 9
M  V30 22 1 23 21
M  V30 23 2 23 22
M  V30 24 1 24 13
M  V30 25 1 24 14
M  V30 26 1 25 5
M  V30 27 1 25 15
M  V30 28 1 26 18
M  V30 29 1 26 24
M  V30 30 1 27 6
M  V30 31 1 28 1
M  V30 32 1 29 1
M  V30 33 1 30 4
M  V30 34 1 31 5
M  V30 35 1 32 5
M  V30 36 1 6 33 CFG=1
M  V30 37 1 34 7
M  V30 38 1 35 10
M  V30 39 1 36 13
M  V30 40 1 37 13
M  V30 41 1 14 38 CFG=3
M  V30 42 1 15 39 CFG=1
M  V30 43 1 40 18
M  V30 44 1 41 18
M  V30 45 1 42 19
M  V30 46 1 43 19
M  V30 47 1 44 22
M  V30 48 1 45 23
M  V30 49 1 46 24
M  V30 50 1 47 25
M  V30 51 1 48 25
M  V30 52 1 49 26
M  V30 53 1 50 26
M  V30 END BOND
M  V30 END CTAB
M  END
>  <i_epik_Tot_Q>  (1) 
0

>  <i_epik_Tot_abs_Q>  (1) 
0

>  <i_i_glide_confnum>  (1) 
18

>  <i_i_glide_lignum>  (1) 
57

>  <i_i_glide_posenum>  (1) 
164

>  <i_i_glide_rotatable_bonds>  (1) 
5

>  <i_lp_mmshare_version>  (1) 
72125

>  <i_m_source_file_index>  (1) 
32

>  <i_f3d_flags>  (1) 
0

>  <num_sample>  (1) 
100

>  <b_lp_Chiralities_Consistent>  (1) 
1

>  <r_epik_Charging_Adjusted_Penalty>  (1) 
0.030402742638392096

>  <r_epik_Ionization_Penalty>  (1) 
0.030794834145842404

>  <r_epik_Ionization_Penalty_Charging>  (1) 
0

>  <r_epik_Ionization_Penalty_Neutral>  (1) 
0.030794834145842404

>  <r_epik_State_Penalty>  (1) 
0.030402742638392096

>  <r_glide_ring_energy>  (1) 
1.8967887167309052

>  <r_i_docking_score>  (1) 
-6.1321807420118457

>  <r_i_glide_ecoul>  (1) 
-5.254344210423695

>  <r_i_glide_eff_state_penalty>  (1) 
0.030402742638392096

>  <r_i_glide_einternal>  (1) 
7.7628086011838002

>  <r_i_glide_emodel>  (1) 
-45.610021472061774

>  <r_i_glide_emodel_strain>  (1) 
0.6534208207620722

>  <r_i_glide_energy>  (1) 
-40.612145844464209

>  <r_i_glide_erotb>  (1) 
0.32471647886420552

>  <r_i_glide_esite>  (1) 
-0.098130879755437536

>  <r_i_glide_evdw>  (1) 
-35.357801634040513

>  <r_i_glide_gscore>  (1) 
-6.1625834846502379

>  <r_i_glide_gscore_strain>  (1) 
0

>  <r_i_glide_hbond>  (1) 
-0.15709443035243673

>  <r_i_glide_ligand_efficiency>  (1) 
-0.22711780525969799

>  <r_i_glide_ligand_efficiency_ln>  (1) 
-1.4274705798396736

>  <r_i_glide_ligand_efficiency_sa>  (1) 
-0.68135341577909414

>  <r_i_glide_lipo>  (1) 
-2.3974129784262117

>  <r_i_glide_metal>  (1) 
-0

>  <r_i_glide_rewards>  (1) 
-1.2786199617147771

>  <r_lp_Energy>  (1) 
32.143867

>  <r_lp_tautomer_probability>  (1) 
0.99999999999977596

>  <s_epik_cmdline>  (1) 
J2VwaWtfcHl0aG9uJywgJy1waHQnLCAnMS4wJywgJy1waCcsICc3LjQnLCAnLXRuJywgJzgnLCAnLW1hJywgJzUwMCcsICctaW1hZScsICc8aW5maWxlLm1hZT4nLCAnLW9tYWUnLCAnPG91dGZpbGUubWFlPic=

>  <s_epik_input>  (1) 
Q2xbQ0BIXTFbQ0gyXVtDSDJdW0NASF0oQ2wpW0NIMl1bQ0BIXTFbQ0hdKFtDSDJdW0NIMl0yKVtDSDJdW0NIMl1OMmMzc2Mobm4zKS1jNFtjSF1jKFtPSF0pYyhbT0hdKVtjSF1bY0hdNA==

>  <s_glide_docking_method>  (1) 
confgen

>  <s_i_glide_gridfile>  (1) 
gpcr_drd2_6luq_protein_autoprepared_prepared

>  <s_lp_Force_Field>  (1) 
S-OPLS

>  <s_lp_Variant>  (1) 
DiffSBDD_31_num_sample_100-2

>  <s_m_source_file>  (1) 
generated__ligand_DiffSBDD_2026-05-06_prepared.sdf

>  <GenAI_Model>  (1) 
DiffSBDD

>  <Protein>  (1) 
generic_title2

$$$$
DiffSBDD_89_num_sample_100
     RDKit          3D

  0  0  0  0  0  0  0  0  0  0999 V3000
M  V30 BEGIN CTAB
M  V30 COUNTS 75 80 0 0 1
M  V30 BEGIN ATOM
M  V30 1 C 6.844710 5.130493 -12.881005 0
M  V30 2 C 7.219927 5.448564 -10.317763 0
M  V30 3 C 6.585903 5.976592 -11.622527 0
M  V30 4 C 9.952053 5.884698 -12.256401 0
M  V30 5 C 9.097228 5.818188 -8.691028 0 CFG=1
M  V30 6 C 10.456401 8.923092 -6.911750 0 CFG=2
M  V30 7 C 5.711269 6.246123 -18.220651 0
M  V30 8 C 10.312748 6.539202 -8.151185 0 CFG=2
M  V30 9 C 5.574549 5.808281 -19.668903 0
M  V30 10 C 5.029916 7.706521 -16.388055 0
M  V30 11 C 10.940083 6.407520 -6.742660 0
M  V30 12 C 8.848738 4.474974 -8.124515 0
M  V30 13 C 7.501383 4.464340 -17.891387 0
M  V30 14 C 11.684091 9.318791 -7.755484 0
M  V30 15 C 5.942856 7.071275 -15.531003 0
M  V30 16 C 8.920145 7.080658 -7.832550 0 CFG=1
M  V30 17 C 13.420500 8.559513 -9.414851 0
M  V30 18 C 9.453101 5.087140 -11.048664 0
M  V30 19 C 6.637176 5.602579 -17.364090 0
M  V30 20 C 11.266037 7.267658 -9.126217 0
M  V30 21 C 6.736306 3.604096 -12.850533 0
M  V30 22 C 9.345214 5.369299 -13.570179 0
M  V30 23 C 7.878931 5.778955 -13.834926 0 CFG=1
M  V30 24 C 5.626257 4.393612 -13.443263 0
M  V30 25 C 12.333639 8.137315 -8.453782 0 CFG=2
M  V30 26 N 8.634900 5.895732 -10.124258 0 CFG=1 CHG=1
M  V30 27 C 10.845942 7.753254 -5.972847 0
M  V30 28 C 9.180924 8.585389 -7.774146 0
M  V30 29 O 7.662881 5.375886 -15.187652 0
M  V30 30 C 6.756260 6.015423 -16.015000 0
M  V30 31 C 4.911885 7.296080 -17.728366 0
M  V30 32 H 7.122668 4.365909 -10.261962 0
M  V30 33 H 6.620107 5.769301 -9.478647 0
M  V30 34 H 5.508336 6.009895 -11.460800 0
M  V30 35 H 6.866709 7.016688 -11.787778 0
M  V30 36 H 11.034707 5.769512 -12.311505 0
M  V30 37 H 9.775627 6.955539 -12.141668 0
M  V30 38 H 10.234833 9.774190 -6.275855 0
M  V30 39 H 4.889226 6.455779 -20.215995 0
M  V30 40 H 6.538827 5.843017 -20.175828 0
M  V30 41 H 5.187936 4.790516 -19.725852 0
M  V30 42 H 4.413124 8.511235 -16.015227 0
M  V30 43 H 11.941405 5.982039 -6.778165 0
M  V30 44 H 10.384146 5.730167 -6.115198 0
M  V30 45 H 9.034835 4.569367 -7.091684 0
M  V30 46 H 7.819020 4.141914 -8.216623 0
M  V30 47 H 9.578748 3.769335 -8.510192 0
M  V30 48 H 8.219838 4.841899 -18.618376 0
M  V30 49 H 8.059477 3.961767 -17.102150 0
M  V30 50 H 6.884931 3.707402 -18.376759 0
M  V30 51 H 11.434848 10.036646 -8.534111 0
M  V30 52 H 12.419099 9.769263 -7.091122 0
M  V30 53 H 6.013615 7.392912 -14.505526 0
M  V30 54 H 8.432225 6.792435 -6.901336 0
M  V30 55 H 13.034847 9.244082 -10.173216 0
M  V30 56 H 14.252100 8.969294 -8.852473 0
M  V30 57 H 13.862704 7.703463 -9.891632 0
M  V30 58 H 8.944226 4.183510 -11.383887 0
M  V30 59 H 10.234823 4.635672 -10.479881 0
M  V30 60 H 11.805046 6.569315 -9.716331 0
M  V30 61 H 10.701740 7.845617 -9.857419 0
M  V30 62 H 7.360341 3.036575 -13.538985 0
M  V30 63 H 6.504142 3.093103 -11.920550 0
M  V30 64 H 9.453244 4.286989 -13.635273 0
M  V30 65 H 9.958017 5.758016 -14.383279 0
M  V30 66 H 7.852439 6.864721 -13.753254 0
M  V30 67 H 4.696090 4.403431 -12.881028 0
M  V30 68 H 5.499113 4.301389 -14.513701 0
M  V30 69 H 12.895488 7.566839 -7.722613 0
M  V30 70 H 11.771979 7.964422 -5.437464 0
M  V30 71 H 10.079603 7.663674 -5.202827 0
M  V30 72 H 9.200723 9.018311 -8.772844 0
M  V30 73 H 8.313816 9.024656 -7.284049 0
M  V30 74 H 4.204515 7.788240 -18.380175 0
M  V30 75 H 8.665381 6.876268 -10.370670 0
M  V30 END ATOM
M  V30 BEGIN BOND
M  V30 1 1 3 1
M  V30 2 1 3 2
M  V30 3 1 8 5
M  V30 4 1 9 7
M  V30 5 1 8 11 CFG=1
M  V30 6 1 5 12 CFG=1
M  V30 7 1 14 6
M  V30 8 1 15 10
M  V30 9 1 16 5
M  V30 10 1 16 8
M  V30 11 1 18 4
M  V30 12 2 19 7
M  V30 13 1 19 13
M  V30 14 1 20 8
M  V30 15 1 21 1
M  V30 16 1 22 4
M  V30 17 1 23 1
M  V30 18 1 23 22
M  V30 19 1 24 1
M  V30 20 1 24 21
M  V30 21 1 25 14
M  V30 22 1 25 17
M  V30 23 1 25 20
M  V30 24 1 26 2
M  V30 25 1 26 5
M  V30 26 1 26 18
M  V30 27 1 27 6
M  V30 28 1 27 11
M  V30 29 1 28 6
M  V30 30 1 28 16
M  V30 31 1 29 23
M  V30 32 2 30 15
M  V30 33 1 30 19
M  V30 34 1 30 29
M  V30 35 1 31 7
M  V30 36 2 31 10
M  V30 37 1 32 2
M  V30 38 1 33 2
M  V30 39 1 34 3
M  V30 40 1 35 3
M  V30 41 1 36 4
M  V30 42 1 37 4
M  V30 43 1 6 38 CFG=1
M  V30 44 1 39 9
M  V30 45 1 40 9
M  V30 46 1 41 9
M  V30 47 1 42 10
M  V30 48 1 43 11
M  V30 49 1 44 11
M  V30 50 1 45 12
M  V30 51 1 46 12
M  V30 52 1 47 12
M  V30 53 1 48 13
M  V30 54 1 49 13
M  V30 55 1 50 13
M  V30 56 1 51 14
M  V30 57 1 52 14
M  V30 58 1 53 15
M  V30 59 1 16 54 CFG=1
M  V30 60 1 55 17
M  V30 61 1 56 17
M  V30 62 1 57 17
M  V30 63 1 58 18
M  V30 64 1 59 18
M  V30 65 1 60 20
M  V30 66 1 61 20
M  V30 67 1 62 21
M  V30 68 1 63 21
M  V30 69 1 64 22
M  V30 70 1 65 22
M  V30 71 1 23 66 CFG=3
M  V30 72 1 67 24
M  V30 73 1 68 24
M  V30 74 1 25 69 CFG=1
M  V30 75 1 70 27
M  V30 76 1 71 27
M  V30 77 1 72 28
M  V30 78 1 73 28
M  V30 79 1 74 31
M  V30 80 1 26 75 CFG=3
M  V30 END BOND
M  V30 END CTAB
M  END
>  <i_epik_Tot_Q>  (1) 
1

>  <i_epik_Tot_abs_Q>  (1) 
1

>  <i_i_glide_confnum>  (1) 
3

>  <i_i_glide_lignum>  (1) 
179

>  <i_i_glide_posenum>  (1) 
80

>  <i_i_glide_rotatable_bonds>  (1) 
3

>  <i_lp_mmshare_version>  (1) 
72125

>  <i_m_source_file_index>  (1) 
90

>  <i_f3d_flags>  (1) 
0

>  <num_sample>  (1) 
100

>  <b_lp_Chiralities_Consistent>  (1) 
1

>  <r_epik_Charging_Adjusted_Penalty>  (1) 
0.1480359762680355

>  <r_epik_Ionization_Penalty>  (1) 
0.074017988134017734

>  <r_epik_Ionization_Penalty_Charging>  (1) 
0.074017988134017734

>  <r_epik_Ionization_Penalty_Neutral>  (1) 
0

>  <r_epik_State_Penalty>  (1) 
0.074017988134017776

>  <r_glide_ring_energy>  (1) 
0.47314266246867254

>  <r_i_docking_score>  (1) 
-6.1306044374135853

>  <r_i_glide_ecoul>  (1) 
-3.9113211278525819

>  <r_i_glide_eff_state_penalty>  (1) 
0.074017988134017776

>  <r_i_glide_einternal>  (1) 
5.0747741373092978

>  <r_i_glide_emodel>  (1) 
-25.657797604279516

>  <r_i_glide_emodel_strain>  (1) 
1.6144633178752059

>  <r_i_glide_energy>  (1) 
-21.111115090711888

>  <r_i_glide_erotb>  (1) 
0.33268982325706958

>  <r_i_glide_esite>  (1) 
-0.096848953660881795

>  <r_i_glide_evdw>  (1) 
-17.199793962859307

>  <r_i_glide_gscore>  (1) 
-6.204622425547603

>  <r_i_glide_gscore_strain>  (1) 
0

>  <r_i_glide_hbond>  (1) 
-0.016731688801004545

>  <r_i_glide_ligand_efficiency>  (1) 
-0.19776143346495437

>  <r_i_glide_ligand_efficiency_ln>  (1) 
-1.38263918109918

>  <r_i_glide_ligand_efficiency_sa>  (1) 
-0.62124394087599555

>  <r_i_glide_lipo>  (1) 
-3.5498628072037506

>  <r_i_glide_metal>  (1) 
-0

>  <r_i_glide_rewards>  (1) 
-1.4271809318181834

>  <r_lp_Energy>  (1) 
80.633463999999989

>  <r_lp_tautomer_probability>  (1) 
1

>  <s_epik_cmdline>  (1) 
J2VwaWtfcHl0aG9uJywgJy1waHQnLCAnMS4wJywgJy1waCcsICc3LjQnLCAnLXRuJywgJzgnLCAnLW1hJywgJzUwMCcsICctaW1hZScsICc8aW5maWxlLm1hZT4nLCAnLW9tYWUnLCAnPG91dGZpbGUubWFlPic=

>  <s_epik_input>  (1) 
W0NIM11bQ0BIXShbQ0gyXTEpW0NIMl1bQ0BIXShbQ0gyXVtDSDJdMilbQ0gyXVtDQEhdKFtDQEBdMTIzKVtDQEBdMyhbQ0gzXSlOKFtDSDJdW0NIMl1DNDVbQ0gyXVtDSDJdNSlbQ0gyXVtDSDJdW0NIMl1bQ0BIXTRPYyhbY0hdW2NIXVtjSF02KWMoW0NIM10pYzZbQ0gzXQ==

>  <s_glide_docking_method>  (1) 
confgen

>  <s_i_glide_gridfile>  (1) 
gpcr_drd2_6luq_protein_autoprepared_prepared

>  <s_lp_Force_Field>  (1) 
S-OPLS

>  <s_lp_Variant>  (1) 
DiffSBDD_89_num_sample_100-1

>  <s_m_source_file>  (1) 
generated__ligand_DiffSBDD_2026-05-06_prepared.sdf

>  <GenAI_Model>  (1) 
DiffSBDD

>  <Protein>  (1) 
generic_title2

$$$$
DiffSBDD_73_num_sample_100
     RDKit          3D

  0  0  0  0  0  0  0  0  0  0999 V3000
M  V30 BEGIN CTAB
M  V30 COUNTS 42 44 0 0 1
M  V30 BEGIN ATOM
M  V30 1 C 7.075707 6.488576 -12.675928 0 CFG=1
M  V30 2 C 5.427069 6.683174 -17.682355 0
M  V30 3 O 5.880040 6.055539 -12.354746 0 CHG=-1
M  V30 4 C 5.035299 6.257599 -19.941569 0
M  V30 5 C 8.082704 4.705258 -11.246568 0
M  V30 6 C 7.750927 4.241814 -13.709164 0
M  V30 7 N 7.920452 6.169293 -11.486391 0 CFG=1 CHG=1
M  V30 8 C 6.825950 6.084907 -15.272138 0
M  V30 9 C 6.002948 5.236281 -19.992157 0
M  V30 10 C 6.429833 5.669052 -17.646727 0
M  V30 11 N 4.756018 6.966897 -18.825449 0
M  V30 12 C 8.637444 3.981819 -12.483686 0
M  V30 13 C 9.835122 6.983891 -10.038167 0
M  V30 14 C 5.148671 7.384381 -16.490340 0
M  V30 15 C 9.201452 6.934116 -11.439782 0
M  V30 16 C 6.258328 4.485412 -21.239495 0
M  V30 17 C 6.717673 4.945009 -18.819565 0
M  V30 18 C 5.835054 7.089603 -15.296921 0
M  V30 19 C 7.123926 5.380258 -16.454584 0
M  V30 20 C 7.588238 5.763523 -13.966971 0 CFG=1
M  V30 21 N 5.638208 4.678367 -22.322763 0
M  V30 22 H 7.210339 7.555175 -12.860591 0
M  V30 23 H 4.462066 6.512866 -20.821433 0
M  V30 24 H 7.111809 4.281881 -10.986679 0
M  V30 25 H 8.711138 4.511547 -10.379189 0
M  V30 26 H 6.771281 3.784452 -13.563277 0
M  V30 27 H 8.204964 3.728969 -14.554233 0
M  V30 28 H 8.688955 2.909691 -12.293424 0
M  V30 29 H 9.660258 4.301314 -12.685615 0
M  V30 30 H 10.699779 7.646857 -10.035109 0
M  V30 31 H 9.128965 7.370900 -9.302132 0
M  V30 32 H 10.175250 6.010215 -9.690823 0
M  V30 33 H 4.393745 8.157072 -16.492654 0
M  V30 34 H 9.912684 6.535352 -12.162733 0
M  V30 35 H 9.018630 7.968005 -11.734213 0
M  V30 36 H 7.036505 3.718626 -21.191318 0
M  V30 37 H 7.469822 4.168598 -18.813830 0
M  V30 38 H 5.594675 7.637937 -14.400193 0
M  V30 39 H 7.882643 4.613421 -16.450202 0
M  V30 40 H 8.590622 6.146008 -14.157085 0
M  V30 41 H 5.943175 4.065552 -23.066094 0
M  V30 42 H 7.374893 6.532533 -10.707380 0
M  V30 END ATOM
M  V30 BEGIN BOND
M  V30 1 1 3 1
M  V30 2 1 7 1
M  V30 3 1 7 5
M  V30 4 1 9 4
M  V30 5 1 10 2
M  V30 6 1 11 2
M  V30 7 2 11 4
M  V30 8 1 12 5
M  V30 9 1 12 6
M  V30 10 2 14 2
M  V30 11 1 15 7
M  V30 12 1 15 13
M  V30 13 1 16 9
M  V30 14 2 17 9
M  V30 15 1 17 10
M  V30 16 2 18 8
M  V30 17 1 18 14
M  V30 18 1 19 8
M  V30 19 2 19 10
M  V30 20 1 20 1
M  V30 21 1 20 6
M  V30 22 1 20 8
M  V30 23 2 21 16
M  V30 24 1 1 22 CFG=3
M  V30 25 1 23 4
M  V30 26 1 24 5
M  V30 27 1 25 5
M  V30 28 1 26 6
M  V30 29 1 27 6
M  V30 30 1 28 12
M  V30 31 1 29 12
M  V30 32 1 30 13
M  V30 33 1 31 13
M  V30 34 1 32 13
M  V30 35 1 33 14
M  V30 36 1 34 15
M  V30 37 1 35 15
M  V30 38 1 36 16
M  V30 39 1 37 17
M  V30 40 1 38 18
M  V30 41 1 39 19
M  V30 42 1 20 40 CFG=3
M  V30 43 1 41 21
M  V30 44 1 7 42 CFG=1
M  V30 END BOND
M  V30 END CTAB
M  END
>  <i_epik_Tot_Q>  (1) 
0

>  <i_epik_Tot_abs_Q>  (1) 
2

>  <i_i_glide_confnum>  (1) 
9

>  <i_i_glide_lignum>  (1) 
146

>  <i_i_glide_posenum>  (1) 
320

>  <i_i_glide_rotatable_bonds>  (1) 
3

>  <i_lp_mmshare_version>  (1) 
72125

>  <i_m_source_file_index>  (1) 
74

>  <i_f3d_flags>  (1) 
0

>  <num_sample>  (1) 
100

>  <b_lp_Chiralities_Consistent>  (1) 
1

>  <r_epik_Charging_Adjusted_Penalty>  (1) 
0.16727262916870361

>  <r_epik_Ionization_Penalty>  (1) 
0.055388618387316971

>  <r_epik_Ionization_Penalty_Charging>  (1) 
0.05537307808352282

>  <r_epik_Ionization_Penalty_Neutral>  (1) 
1.5540303794148587e-05

>  <r_epik_State_Penalty>  (1) 
0.11189955108518078

>  <r_glide_ring_energy>  (1) 
2.2761646496087313

>  <r_i_docking_score>  (1) 
-6.12713138001007

>  <r_i_glide_ecoul>  (1) 
-3.75085274214138

>  <r_i_glide_eff_state_penalty>  (1) 
0.11189955108518078

>  <r_i_glide_einternal>  (1) 
1.2472987602583636

>  <r_i_glide_emodel>  (1) 
-43.749139395116202

>  <r_i_glide_emodel_strain>  (1) 
0

>  <r_i_glide_energy>  (1) 
-31.272320709993725

>  <r_i_glide_erotb>  (1) 
0.22551580141899327

>  <r_i_glide_esite>  (1) 
-0.11726986714898276

>  <r_i_glide_evdw>  (1) 
-27.521467967852345

>  <r_i_glide_gscore>  (1) 
-6.2390309310952503

>  <r_i_glide_gscore_strain>  (1) 
0

>  <r_i_glide_hbond>  (1) 
-0.20000000000000001

>  <r_i_glide_ligand_efficiency>  (1) 
-0.29176816095286046

>  <r_i_glide_ligand_efficiency_ln>  (1) 
-1.5149208526727582

>  <r_i_glide_ligand_efficiency_sa>  (1) 
-0.80496623315110494

>  <r_i_glide_lipo>  (1) 
-2.0189098574946001

>  <r_i_glide_metal>  (1) 
-0

>  <r_i_glide_rewards>  (1) 
-2.1896656981568361

>  <r_lp_Energy>  (1) 
46.855032999999999

>  <s_epik_Chemistry_Notes>  (1) 
This compound has an imine and may undergo hydrolysis. This compound contains an acetal/aminal-like group ( X-CH(R)-Y where X, Y are N, S, or O) that may be acid/base labile, releasing an aldehyde.

>  <s_epik_cmdline>  (1) 
J2VwaWtfcHl0aG9uJywgJy1waHQnLCAnMS4wJywgJy1waCcsICc3LjQnLCAnLXRuJywgJzgnLCAnLW1hJywgJzUwMCcsICctaW1hZScsICc8aW5maWxlLm1hZT4nLCAnLW9tYWUnLCAnPG91dGZpbGUubWFlPic=

>  <s_epik_input>  (1) 
W09IXVtDQEhdMU4oW0NIMl1bQ0gzXSlbQ0gyXVtDSDJdW0NIMl1bQ0BIXTFjKFtjSF1bY0hdMilbY0hdYyhjMjMpW2NIXWMoW2NIXW4zKS9bQ0hdPU4vW0hd

>  <s_glide_docking_method>  (1) 
confgen

>  <s_i_glide_gridfile>  (1) 
gpcr_drd2_6luq_protein_autoprepared_prepared

>  <s_lp_Force_Field>  (1) 
S-OPLS

>  <s_lp_Variant>  (1) 
DiffSBDD_73_num_sample_100-1

>  <s_m_source_file>  (1) 
generated__ligand_DiffSBDD_2026-05-06_prepared.sdf

>  <GenAI_Model>  (1) 
DiffSBDD

>  <Protein>  (1) 
generic_title2

$$$$
DiffSBDD_7_num_sample_100
     RDKit          3D

  0  0  0  0  0  0  0  0  0  0999 V3000
M  V30 BEGIN CTAB
M  V30 COUNTS 61 65 0 0 1
M  V30 BEGIN ATOM
M  V30 1 C 10.401375 7.124934 -10.223388 0 CFG=1
M  V30 2 C 11.757931 8.970141 -4.546030 0
M  V30 3 C 11.834835 7.720062 -3.890996 0
M  V30 4 O 10.254752 8.536451 -10.105652 0
M  V30 5 C 7.265379 5.621511 -11.693923 0 CFG=2
M  V30 6 C 6.334258 0.716805 -13.745443 0
M  V30 7 F 13.003711 6.422584 -2.291668 0
M  V30 8 C 5.715518 3.194896 -13.446145 0
M  V30 9 C 8.089818 3.469967 -14.440506 0 CFG=2
M  V30 10 C 12.452428 7.618232 -2.505314 0
M  V30 11 C 10.753374 7.868157 -8.941081 0 CFG=1
M  V30 12 C 7.244915 1.882105 -16.400143 0
M  V30 13 F 13.356987 8.569203 -2.291603 0
M  V30 14 C 8.864310 5.177679 -9.906799 0 CFG=1
M  V30 15 C 6.522547 4.947083 -10.511506 0
M  V30 16 N 9.034826 6.569289 -10.287552 0 CFG=2 CHG=1
M  V30 17 C 7.499290 4.956005 -9.313641 0
M  V30 18 C 8.106631 4.597407 -15.494479 0
M  V30 19 O 9.228223 5.015327 -15.857376 0
M  V30 20 C 8.053097 2.050669 -15.099561 0 CFG=2
M  V30 21 F 11.472232 7.780283 -1.620292 0
M  V30 22 O 7.002807 5.008125 -15.914138 0 CHG=-1
M  V30 23 C 11.298516 6.570727 -4.509090 0
M  V30 24 C 10.667163 6.671777 -5.764243 0
M  V30 25 C 9.843992 8.032102 -7.736491 0
M  V30 26 O 8.234843 -0.230708 -14.647939 0
M  V30 27 C 10.567018 7.920637 -6.406908 0
M  V30 28 C 7.141480 3.688299 -13.231447 0 CFG=1
M  V30 29 C 5.435172 1.674394 -13.491664 0
M  V30 30 C 11.123601 9.069916 -5.802751 0
M  V30 31 O 6.999015 5.091351 -12.984903 0
M  V30 32 C 8.726768 5.598688 -11.328198 0 CFG=2
M  V30 33 C 7.784912 0.949436 -14.060741 0 CFG=2
M  V30 34 H 11.106657 6.845176 -11.000851 0
M  V30 35 H 12.165118 9.853114 -4.076159 0
M  V30 36 H 6.957105 6.667586 -11.744729 0
M  V30 37 H 6.006475 -0.313913 -13.745878 0
M  V30 38 H 5.349314 3.769293 -14.291598 0
M  V30 39 H 5.109132 3.574255 -12.627637 0
M  V30 40 H 9.034854 3.578552 -13.927191 0
M  V30 41 H 11.803713 8.086165 -8.758262 0
M  V30 42 H 6.234732 2.200077 -16.251030 0
M  V30 43 H 7.658489 2.471263 -17.218782 0
M  V30 44 H 7.218446 0.849740 -16.746921 0
M  V30 45 H 9.766525 4.742741 -9.479881 0
M  V30 46 H 5.587254 5.462739 -10.291737 0
M  V30 47 H 6.259168 3.910756 -10.717403 0
M  V30 48 H 7.291547 5.769200 -8.628090 0
M  V30 49 H 7.434836 4.037578 -8.736729 0
M  V30 50 H 9.034838 1.837584 -15.491744 0
M  V30 51 H 11.353391 5.617594 -4.011005 0
M  V30 52 H 10.244819 5.792026 -6.226040 0
M  V30 53 H 9.345831 8.998180 -7.790344 0
M  V30 54 H 9.043399 7.293957 -7.758378 0
M  V30 55 H 7.635355 -0.476872 -15.335863 0
M  V30 56 H 7.570185 3.193886 -12.359335 0
M  V30 57 H 4.417339 1.370252 -13.314522 0
M  V30 58 H 11.050195 10.029140 -6.293491 0
M  V30 59 H 9.514153 5.511831 -12.075706 0
M  V30 60 H 8.358184 1.099676 -13.143632 0
M  V30 61 H 8.256896 7.157925 -9.972719 0
M  V30 END ATOM
M  V30 BEGIN BOND
M  V30 1 2 3 2
M  V30 2 1 4 1
M  V30 3 1 10 3
M  V30 4 1 10 7
M  V30 5 1 11 1
M  V30 6 1 11 4
M  V30 7 1 13 10
M  V30 8 1 15 5
M  V30 9 1 16 1
M  V30 10 1 16 14
M  V30 11 1 17 14
M  V30 12 1 17 15
M  V30 13 1 18 9
M  V30 14 2 19 18
M  V30 15 1 20 9
M  V30 16 1 20 12
M  V30 17 1 21 10
M  V30 18 1 22 18
M  V30 19 1 23 3
M  V30 20 2 24 23
M  V30 21 1 25 11
M  V30 22 1 27 24
M  V30 23 1 27 25
M  V30 24 1 28 8
M  V30 25 1 28 9
M  V30 26 2 29 6
M  V30 27 1 29 8
M  V30 28 1 30 2
M  V30 29 2 30 27
M  V30 30 1 31 5
M  V30 31 1 31 28
M  V30 32 1 32 5
M  V30 33 1 32 14
M  V30 34 1 32 16
M  V30 35 1 33 6
M  V30 36 1 33 20
M  V30 37 1 33 26
M  V30 38 1 1 34 CFG=3
M  V30 39 1 35 2
M  V30 40 1 5 36 CFG=3
M  V30 41 1 37 6
M  V30 42 1 38 8
M  V30 43 1 39 8
M  V30 44 1 9 40 CFG=1
M  V30 45 1 11 41 CFG=1
M  V30 46 1 42 12
M  V30 47 1 43 12
M  V30 48 1 44 12
M  V30 49 1 14 45 CFG=3
M  V30 50 1 46 15
M  V30 51 1 47 15
M  V30 52 1 48 17
M  V30 53 1 49 17
M  V30 54 1 20 50 CFG=3
M  V30 55 1 51 23
M  V30 56 1 52 24
M  V30 57 1 53 25
M  V30 58 1 54 25
M  V30 59 1 55 26
M  V30 60 1 28 56 CFG=1
M  V30 61 1 57 29
M  V30 62 1 58 30
M  V30 63 1 32 59 CFG=3
M  V30 64 1 33 60 CFG=1
M  V30 65 1 16 61 CFG=1
M  V30 END BOND
M  V30 END CTAB
M  END
>  <i_epik_Tot_Q>  (1) 
0

>  <i_epik_Tot_abs_Q>  (1) 
2

>  <i_i_glide_confnum>  (1) 
28

>  <i_i_glide_lignum>  (1) 
13

>  <i_i_glide_posenum>  (1) 
18

>  <i_i_glide_rotatable_bonds>  (1) 
8

>  <i_lp_mmshare_version>  (1) 
72125

>  <i_m_source_file_index>  (1) 
8

>  <i_f3d_flags>  (1) 
2

>  <num_sample>  (1) 
100

>  <b_lp_Chiralities_Consistent>  (1) 
0

>  <r_epik_Charging_Adjusted_Penalty>  (1) 
0.97984479296791849

>  <r_epik_Ionization_Penalty>  (1) 
0.49008068678085143

>  <r_epik_Ionization_Penalty_Charging>  (1) 
0.49008059146589078

>  <r_epik_Ionization_Penalty_Neutral>  (1) 
9.5314960655475233e-08

>  <r_epik_State_Penalty>  (1) 
0.48976420150202771

>  <r_glide_ring_energy>  (1) 
0.19782434185497597

>  <r_i_docking_score>  (1) 
-6.124441643214821

>  <r_i_glide_ecoul>  (1) 
-7.4684639407332662

>  <r_i_glide_eff_state_penalty>  (1) 
0.48976420150202771

>  <r_i_glide_einternal>  (1) 
8.315866621484469

>  <r_i_glide_emodel>  (1) 
-36.09799616226114

>  <r_i_glide_emodel_strain>  (1) 
1.0249480788303345

>  <r_i_glide_energy>  (1) 
-29.411019020487306

>  <r_i_glide_erotb>  (1) 
0.46174917305607022

>  <r_i_glide_esite>  (1) 
-0.1386181004432315

>  <r_i_glide_evdw>  (1) 
-21.94255507975404

>  <r_i_glide_gscore>  (1) 
-6.6142058447168486

>  <r_i_glide_gscore_strain>  (1) 
0

>  <r_i_glide_hbond>  (1) 
-0.20000000000000001

>  <r_i_glide_ligand_efficiency>  (1) 
-0.18558914070347943

>  <r_i_glide_ligand_efficiency_ln>  (1) 
-1.3620441107892658

>  <r_i_glide_ligand_efficiency_sa>  (1) 
-0.59528354008083606

>  <r_i_glide_lipo>  (1) 
-2.8455001849711086

>  <r_i_glide_metal>  (1) 
-0

>  <r_i_glide_rewards>  (1) 
-1.674439387260886

>  <r_lp_Energy>  (1) 
40.093779999999995

>  <s_epik_Chemistry_Notes>  (1) 
This compound contains an acetal/aminal-like group ( X-CH(R)-Y where X, Y are N, S, or O) that may be acid/base labile, releasing an aldehyde.

>  <s_epik_cmdline>  (1) 
J2VwaWtfcHl0aG9uJywgJy1waHQnLCAnMS4wJywgJy1waCcsICc3LjQnLCAnLXRuJywgJzgnLCAnLW1hJywgJzUwMCcsICctaW1hZScsICc8aW5maWxlLm1hZT4nLCAnLW9tYWUnLCAnPG91dGZpbGUubWFlPic=

>  <s_epik_input>  (1) 
RkMoRikoRiljMVtjSF1bY0hdYyhbY0hdW2NIXTEpW0NIMl1bQ0BASF0yT1tDSF0yTjNbQ0BASF0oW0NASF0zNClbQ0BIXShbQ0gyXVtDSDJdNClPW0NASF01W0NIMl1bQ0hdPVtDSF1bQ0BASF0oW09IXSlbQ0BASF0oW0NIM10pW0NASF01Qyg9TylbT0hd

>  <s_glide_docking_method>  (1) 
confgen

>  <s_i_glide_gridfile>  (1) 
gpcr_drd2_6luq_protein_autoprepared_prepared

>  <s_lp_Force_Field>  (1) 
S-OPLS

>  <s_lp_Variant>  (1) 
DiffSBDD_7_num_sample_100-2

>  <s_m_source_file>  (1) 
generated__ligand_DiffSBDD_2026-05-06_prepared.sdf

>  <GenAI_Model>  (1) 
DiffSBDD

>  <Protein>  (1) 
generic_title2

$$$$
DiffSBDD_55_num_sample_100
     RDKit          3D

  0  0  0  0  0  0  0  0  0  0999 V3000
M  V30 BEGIN CTAB
M  V30 COUNTS 51 54 0 0 1
M  V30 BEGIN ATOM
M  V30 1 O 6.759310 5.691455 -11.340143 0
M  V30 2 C 11.854852 7.268886 -3.765288 0
M  V30 3 C 9.387234 7.432936 -11.065511 0
M  V30 4 C 11.836687 8.858339 -8.926909 0
M  V30 5 C 9.434716 4.831377 -9.823494 0 CFG=2
M  V30 6 C 9.085696 4.908851 -11.313777 0 CFG=1
M  V30 7 S 11.434827 9.779480 -4.650528 0
M  V30 8 C 12.298827 8.703268 -3.488437 0
M  V30 9 C 11.434522 7.216962 -5.228075 0
M  V30 10 C 5.900913 4.703846 -13.251474 0
M  V30 11 N 10.183226 7.270801 -9.820663 0 CFG=1 CHG=1
M  V30 12 C 7.599170 4.570177 -11.591038 0 CFG=2
M  V30 13 C 9.565127 6.223017 -11.974412 0 CFG=2
M  V30 14 C 7.281637 4.125247 -13.025490 0
M  V30 15 C 6.003143 6.019461 -12.494439 0
M  V30 16 C 9.794438 8.565302 -6.482069 0
M  V30 17 C 10.356364 8.509904 -9.014224 0 CFG=1
M  V30 18 C 11.207634 8.538279 -5.922370 0 CFG=1
M  V30 19 C 8.637300 5.516115 -8.737501 0
M  V30 20 O 11.304340 6.163163 -5.820364 0
M  V30 21 O 10.941460 6.173824 -12.291669 0
M  V30 22 C 9.434794 8.558830 -7.785445 0
M  V30 23 C 10.016460 6.008863 -9.037486 0 CFG=1
M  V30 24 H 12.659286 6.569301 -3.564365 0
M  V30 25 H 11.034847 6.969261 -3.123609 0
M  V30 26 H 9.727676 8.321962 -11.598693 0
M  V30 27 H 8.336287 7.591430 -10.871586 0
M  V30 28 H 11.952031 9.769297 -8.350897 0
M  V30 29 H 12.437998 8.052389 -8.504940 0
M  V30 30 H 12.243664 9.062737 -9.918096 0
M  V30 31 H 9.834987 3.858642 -9.545952 0
M  V30 32 H 9.648727 4.098723 -11.780204 0
M  V30 33 H 13.370302 8.803041 -3.661757 0
M  V30 34 H 12.096853 9.008577 -2.461041 0
M  V30 35 H 5.141752 4.067743 -12.794828 0
M  V30 36 H 5.656745 4.835176 -14.305659 0
M  V30 37 H 7.267561 3.773101 -10.925514 0
M  V30 38 H 9.031134 6.396441 -12.907413 0
M  V30 39 H 7.982123 4.554059 -13.741202 0
M  V30 40 H 7.307540 3.041807 -13.143158 0
M  V30 41 H 5.035112 6.440257 -12.226140 0
M  V30 42 H 6.544478 6.762045 -13.081785 0
M  V30 43 H 9.009388 8.588582 -5.752151 0
M  V30 44 H 9.942520 9.333746 -9.590923 0
M  V30 45 H 12.018667 8.658995 -6.617724 0
M  V30 46 H 8.487079 4.969084 -7.809590 0
M  V30 47 H 7.834828 6.165600 -9.013057 0
M  V30 48 H 11.096353 5.460810 -12.903756 0
M  V30 49 H 8.391567 8.590988 -8.003245 0
M  V30 50 H 10.815811 5.819249 -8.325322 0
M  V30 51 H 11.094976 7.137331 -10.235701 0
M  V30 END ATOM
M  V30 BEGIN BOND
M  V30 1 1 6 5
M  V30 2 1 8 2
M  V30 3 1 8 7
M  V30 4 1 9 2
M  V30 5 1 11 3
M  V30 6 1 12 1
M  V30 7 1 12 6
M  V30 8 1 13 3
M  V30 9 1 13 6
M  V30 10 1 14 10
M  V30 11 1 14 12
M  V30 12 1 15 1
M  V30 13 1 15 10
M  V30 14 1 17 4
M  V30 15 1 17 11
M  V30 16 1 18 7
M  V30 17 1 18 9
M  V30 18 1 18 16
M  V30 19 1 19 5
M  V30 20 2 20 9
M  V30 21 1 21 13
M  V30 22 2 22 16
M  V30 23 1 22 17
M  V30 24 1 23 5
M  V30 25 1 23 11
M  V30 26 1 23 19
M  V30 27 1 24 2
M  V30 28 1 25 2
M  V30 29 1 26 3
M  V30 30 1 27 3
M  V30 31 1 28 4
M  V30 32 1 29 4
M  V30 33 1 30 4
M  V30 34 1 5 31 CFG=1
M  V30 35 1 6 32 CFG=3
M  V30 36 1 33 8
M  V30 37 1 34 8
M  V30 38 1 35 10
M  V30 39 1 36 10
M  V30 40 1 12 37 CFG=1
M  V30 41 1 13 38 CFG=3
M  V30 42 1 39 14
M  V30 43 1 40 14
M  V30 44 1 41 15
M  V30 45 1 42 15
M  V30 46 1 43 16
M  V30 47 1 17 44 CFG=3
M  V30 48 1 18 45 CFG=3
M  V30 49 1 46 19
M  V30 50 1 47 19
M  V30 51 1 48 21
M  V30 52 1 49 22
M  V30 53 1 23 50 CFG=1
M  V30 54 1 11 51 CFG=3
M  V30 END BOND
M  V30 END CTAB
M  END
>  <i_epik_Tot_Q>  (1) 
1

>  <i_epik_Tot_abs_Q>  (1) 
1

>  <i_i_glide_confnum>  (1) 
35

>  <i_i_glide_lignum>  (1) 
103

>  <i_i_glide_posenum>  (1) 
290

>  <i_i_glide_rotatable_bonds>  (1) 
5

>  <i_lp_mmshare_version>  (1) 
72125

>  <i_m_source_file_index>  (1) 
56

>  <i_f3d_flags>  (1) 
0

>  <num_sample>  (1) 
100

>  <b_lp_Chiralities_Consistent>  (1) 
1

>  <r_epik_Charging_Adjusted_Penalty>  (1) 
0.1887110856522376

>  <r_epik_Ionization_Penalty>  (1) 
0.094355642401006162

>  <r_epik_Ionization_Penalty_Charging>  (1) 
0.094355542826118813

>  <r_epik_Ionization_Penalty_Neutral>  (1) 
9.9574887353862298e-08

>  <r_epik_State_Penalty>  (1) 
0.094355542826118799

>  <r_glide_ring_energy>  (1) 
0.48034924446919847

>  <r_i_docking_score>  (1) 
-6.1226721533681339

>  <r_i_glide_ecoul>  (1) 
-3.4666789537285143

>  <r_i_glide_eff_state_penalty>  (1) 
0.094355542826118799

>  <r_i_glide_einternal>  (1) 
4.6336357288034531

>  <r_i_glide_emodel>  (1) 
-38.325236531776603

>  <r_i_glide_emodel_strain>  (1) 
1.8498827992609534

>  <r_i_glide_energy>  (1) 
-28.280819611669223

>  <r_i_glide_erotb>  (1) 
0.49519417565235591

>  <r_i_glide_esite>  (1) 
-0.063913787352230716

>  <r_i_glide_evdw>  (1) 
-24.814140657940708

>  <r_i_glide_gscore>  (1) 
-6.2170276961942523

>  <r_i_glide_gscore_strain>  (1) 
0

>  <r_i_glide_hbond>  (1) 
-0.31756763799304005

>  <r_i_glide_ligand_efficiency>  (1) 
-0.26620313710296234

>  <r_i_glide_ligand_efficiency_ln>  (1) 
-1.480517644006065

>  <r_i_glide_ligand_efficiency_sa>  (1) 
-0.75704631154001378

>  <r_i_glide_lipo>  (1) 
-2.2067285394930445

>  <r_i_glide_metal>  (1) 
-0

>  <r_i_glide_rewards>  (1) 
-2.3633030310519807

>  <r_lp_Energy>  (1) 
19.602328

>  <r_lp_tautomer_probability>  (1) 
0.99995000000000001

>  <s_epik_cmdline>  (1) 
J2VwaWtfcHl0aG9uJywgJy1waHQnLCAnMS4wJywgJy1waCcsICc3LjQnLCAnLXRuJywgJzgnLCAnLW1hJywgJzUwMCcsICctaW1hZScsICc8aW5maWxlLm1hZT4nLCAnLW9tYWUnLCAnPG91dGZpbGUubWFlPic=

>  <s_epik_input>  (1) 
W0NIMl0xW0NIMl1bQ0gyXU9bQ0BASF0xW0NASF0yW0NASF0oW09IXSlbQ0gyXU4oW0NASF0oW0NASF0yMylbQ0gyXTMpW0NASF0oW0NIM10pL1tDSF09W0NIXVxbQ0BIXTRTW0NIMl1bQ0gyXUM0PU8=

>  <s_glide_docking_method>  (1) 
confgen

>  <s_i_glide_gridfile>  (1) 
gpcr_drd2_6luq_protein_autoprepared_prepared

>  <s_lp_Force_Field>  (1) 
S-OPLS

>  <s_lp_Variant>  (1) 
DiffSBDD_55_num_sample_100-4

>  <s_m_source_file>  (1) 
generated__ligand_DiffSBDD_2026-05-06_prepared.sdf

>  <GenAI_Model>  (1) 
DiffSBDD

>  <Protein>  (1) 
generic_title2

$$$$
DiffSBDD_61_num_sample_100
     RDKit          3D

  0  0  0  0  0  0  0  0  0  0999 V3000
M  V30 BEGIN CTAB
M  V30 COUNTS 51 53 0 0 1
M  V30 BEGIN ATOM
M  V30 1 N 11.434835 8.210243 -4.981262 0
M  V30 2 C 6.190747 5.796229 -12.727486 0
M  V30 3 C 7.562924 6.085656 -12.071325 0 CFG=1
M  V30 4 O 12.634841 8.028867 -1.606715 0
M  V30 5 C 12.349352 6.702138 -1.891668 0
M  V30 6 O 7.548733 5.752177 -10.691670 0
M  V30 7 C 11.357031 7.978292 -10.178943 0
M  V30 8 O 7.921558 3.029128 -13.273395 0
M  V30 9 C 11.850787 8.964825 -9.122686 0
M  V30 10 C 9.460157 7.710167 -11.889349 0 CFG=1
M  V30 11 C 10.773496 7.197346 -5.796012 0
M  V30 12 C 8.690849 5.310821 -12.797314 0 CFG=2
M  V30 13 C 8.807107 3.800482 -12.487107 0
M  V30 14 C 11.308403 7.317195 -7.223716 0
M  V30 15 C 7.954106 7.579054 -12.160544 0
M  V30 16 C 11.225059 8.774757 -7.733241 0
M  V30 17 O 5.933486 6.390745 -13.799742 0 CHG=-1
M  V30 18 C 11.334023 9.614529 -5.327192 0
M  V30 19 C 9.833718 8.010002 -10.427933 0
M  V30 20 C 11.900829 9.750771 -6.734543 0
M  V30 21 C 12.316849 8.722753 -2.740620 0
M  V30 22 C 11.844574 7.865645 -3.683458 0
M  V30 23 C 11.848953 6.569297 -3.150204 0
M  V30 24 S 10.234840 6.169132 -12.413051 0
M  V30 25 O 5.435021 4.985709 -12.143337 0
M  V30 26 H 12.562303 6.003098 -1.095917 0
M  V30 27 H 7.099459 6.455751 -10.216179 0
M  V30 28 H 11.655268 6.969302 -9.905773 0
M  V30 29 H 11.910292 8.169299 -11.091666 0
M  V30 30 H 7.901147 2.151755 -12.923356 0
M  V30 31 H 12.934972 8.867728 -9.049461 0
M  V30 32 H 11.667553 9.980808 -9.474197 0
M  V30 33 H 9.834831 8.521471 -12.509098 0
M  V30 34 H 9.698496 7.383146 -5.784895 0
M  V30 35 H 10.919096 6.173423 -5.464827 0
M  V30 36 H 8.569782 5.436741 -13.874894 0
M  V30 37 H 8.634828 3.597628 -11.431483 0
M  V30 38 H 9.818647 3.449849 -12.691742 0
M  V30 39 H 10.733510 6.643381 -7.858995 0
M  V30 40 H 12.338750 6.969442 -7.257185 0
M  V30 41 H 7.367367 8.210285 -11.491905 0
M  V30 42 H 7.769563 7.954700 -13.168221 0
M  V30 43 H 10.159077 8.992465 -7.792339 0
M  V30 44 H 10.287057 9.914261 -5.301820 0
M  V30 45 H 11.877713 10.279723 -4.663414 0
M  V30 46 H 9.407806 8.969308 -10.150500 0
M  V30 47 H 9.362459 7.293892 -9.756494 0
M  V30 48 H 12.968488 9.528942 -6.691658 0
M  V30 49 H 11.834646 10.785701 -7.060973 0
M  V30 50 H 12.492035 9.786080 -2.698799 0
M  V30 51 H 11.546479 5.650813 -3.618934 0
M  V30 END ATOM
M  V30 BEGIN BOND
M  V30 1 1 3 2
M  V30 2 1 5 4
M  V30 3 1 3 6 CFG=1
M  V30 4 1 9 7
M  V30 5 1 11 1
M  V30 6 1 12 3
M  V30 7 1 13 8
M  V30 8 1 13 12
M  V30 9 1 14 11
M  V30 10 1 15 3
M  V30 11 1 15 10
M  V30 12 1 16 9
M  V30 13 1 16 14
M  V30 14 1 17 2
M  V30 15 1 18 1
M  V30 16 1 19 7
M  V30 17 1 19 10
M  V30 18 1 20 16
M  V30 19 1 20 18
M  V30 20 1 21 4
M  V30 21 1 22 1
M  V30 22 2 22 21
M  V30 23 2 23 5
M  V30 24 1 23 22
M  V30 25 1 24 10
M  V30 26 1 24 12
M  V30 27 2 25 2
M  V30 28 1 26 5
M  V30 29 1 27 6
M  V30 30 1 28 7
M  V30 31 1 29 7
M  V30 32 1 30 8
M  V30 33 1 31 9
M  V30 34 1 32 9
M  V30 35 1 10 33 CFG=3
M  V30 36 1 34 11
M  V30 37 1 35 11
M  V30 38 1 12 36 CFG=3
M  V30 39 1 37 13
M  V30 40 1 38 13
M  V30 41 1 39 14
M  V30 42 1 40 14
M  V30 43 1 41 15
M  V30 44 1 42 15
M  V30 45 1 43 16
M  V30 46 1 44 18
M  V30 47 1 45 18
M  V30 48 1 46 19
M  V30 49 1 47 19
M  V30 50 1 48 20
M  V30 51 1 49 20
M  V30 52 1 50 21
M  V30 53 1 51 23
M  V30 END BOND
M  V30 END CTAB
M  END
>  <i_epik_Tot_Q>  (1) 
-1

>  <i_epik_Tot_abs_Q>  (1) 
1

>  <i_i_glide_confnum>  (1) 
43

>  <i_i_glide_lignum>  (1) 
123

>  <i_i_glide_posenum>  (1) 
19

>  <i_i_glide_rotatable_bonds>  (1) 
9

>  <i_lp_mmshare_version>  (1) 
72125

>  <i_m_source_file_index>  (1) 
62

>  <i_f3d_flags>  (1) 
0

>  <num_sample>  (1) 
100

>  <b_lp_Chiralities_Consistent>  (1) 
1

>  <r_epik_Charging_Adjusted_Penalty>  (1) 
0.8774089377882176

>  <r_epik_Ionization_Penalty>  (1) 
0.8774093123040011

>  <r_epik_Ionization_Penalty_Charging>  (1) 
6.4905039586267643e-05

>  <r_epik_Ionization_Penalty_Neutral>  (1) 
0.87734440726441487

>  <r_epik_State_Penalty>  (1) 
0.87734403274863138

>  <r_glide_ring_energy>  (1) 
0

>  <r_i_docking_score>  (1) 
-6.1224491432545953

>  <r_i_glide_ecoul>  (1) 
-5.9176431464319759

>  <r_i_glide_eff_state_penalty>  (1) 
0.87734403274863138

>  <r_i_glide_einternal>  (1) 
9.3309931120428953

>  <r_i_glide_emodel>  (1) 
-42.196954824835871

>  <r_i_glide_emodel_strain>  (1) 
3.8525768922196093

>  <r_i_glide_energy>  (1) 
-37.259487111869866

>  <r_i_glide_erotb>  (1) 
0.85157240902219222

>  <r_i_glide_esite>  (1) 
-0.0078001325679553785

>  <r_i_glide_evdw>  (1) 
-31.341843965437889

>  <r_i_glide_gscore>  (1) 
-6.9997931760032266

>  <r_i_glide_gscore_strain>  (1) 
0

>  <r_i_glide_hbond>  (1) 
-0.16

>  <r_i_glide_ligand_efficiency>  (1) 
-0.24489796573018383

>  <r_i_glide_ligand_efficiency_ln>  (1) 
-1.4512039219466391

>  <r_i_glide_ligand_efficiency_sa>  (1) 
-0.71608599584730415

>  <r_i_glide_lipo>  (1) 
-3.2527531594967933

>  <r_i_glide_metal>  (1) 
-0

>  <r_i_glide_rewards>  (1) 
-1.9760736227239799

>  <r_lp_Energy>  (1) 
22.683494

>  <r_lp_tautomer_probability>  (1) 
1

>  <s_epik_cmdline>  (1) 
J2VwaWtfcHl0aG9uJywgJy1waHQnLCAnMS4wJywgJy1waCcsICc3LjQnLCAnLXRuJywgJzgnLCAnLW1hJywgJzUwMCcsICctaW1hZScsICc8aW5maWxlLm1hZT4nLCAnLW9tYWUnLCAnPG91dGZpbGUubWFlPic=

>  <s_epik_input>  (1) 
W2NIXTFbY0hdb1tjSF1jMU4yW0NIMl1bQ0gyXVtDSF0oW0NIMl1bQ0gyXTIpW0NIMl1bQ0gyXVtDSDJdW0NASF0oW0NIMl0zKVNbQ0BASF0oW0NIMl1bT0hdKVtDQF0zKFtPSF0pQyg9TylbT0hd

>  <s_glide_docking_method>  (1) 
confgen

>  <s_i_glide_gridfile>  (1) 
gpcr_drd2_6luq_protein_autoprepared_prepared

>  <s_lp_Force_Field>  (1) 
S-OPLS

>  <s_lp_Variant>  (1) 
DiffSBDD_61_num_sample_100-3

>  <s_m_source_file>  (1) 
generated__ligand_DiffSBDD_2026-05-06_prepared.sdf

>  <GenAI_Model>  (1) 
DiffSBDD

>  <Protein>  (1) 
generic_title2

$$$$
DiffSBDD_55_num_sample_100
     RDKit          3D

  0  0  0  0  0  0  0  0  0  0999 V3000
M  V30 BEGIN CTAB
M  V30 COUNTS 51 54 0 0 1
M  V30 BEGIN ATOM
M  V30 1 O 7.869448 2.318691 -13.327195 0
M  V30 2 C 11.816916 8.624545 -7.016932 0
M  V30 3 C 7.704179 4.886822 -11.564937 0
M  V30 4 C 10.213079 6.165154 -12.630367 0
M  V30 5 C 6.216502 5.010127 -14.038433 0 CFG=2
M  V30 6 C 5.926125 3.863576 -13.074433 0 CFG=1
M  V30 7 S 9.835443 6.748624 -7.090516 0
M  V30 8 C 10.862226 7.860095 -6.086762 0
M  V30 9 C 11.200339 8.569301 -8.399406 0
M  V30 10 C 6.912046 0.170380 -13.349818 0
M  V30 11 N 7.690153 6.190242 -12.287062 0 CFG=1 CHG=1
M  V30 12 C 6.495332 2.514468 -13.604173 0 CFG=2
M  V30 13 C 6.320847 4.234514 -11.626848 0 CFG=2
M  V30 14 C 5.890837 1.235440 -13.026625 0
M  V30 15 C 8.177478 0.970561 -13.656619 0
M  V30 16 C 9.742043 7.154624 -9.837438 0
M  V30 17 C 8.954535 6.963470 -12.229493 0 CFG=1
M  V30 18 C 9.861779 7.859728 -8.509505 0 CFG=1
M  V30 19 C 7.599809 5.222726 -14.635781 0
M  V30 20 O 11.756405 9.069882 -9.376236 0
M  V30 21 O 5.419607 5.177197 -11.092196 0
M  V30 22 C 9.073780 7.654282 -10.888966 0
M  V30 23 C 7.061057 6.215435 -13.642788 0 CFG=1
M  V30 24 H 11.972566 9.650935 -6.682151 0
M  V30 25 H 12.778598 8.133866 -7.092241 0
M  V30 26 H 7.971520 5.056016 -10.521194 0
M  V30 27 H 8.459819 4.216936 -11.969982 0
M  V30 28 H 11.094949 6.804118 -12.615304 0
M  V30 29 H 10.415516 5.318681 -11.976688 0
M  V30 30 H 10.135355 5.768378 -13.641347 0
M  V30 31 H 5.395897 5.215039 -14.719190 0
M  V30 32 H 4.841797 3.744048 -13.088847 0
M  V30 33 H 10.205272 8.570355 -5.582424 0
M  V30 34 H 11.391555 7.293554 -5.320041 0
M  V30 35 H 6.616667 -0.446288 -14.201908 0
M  V30 36 H 7.033978 -0.486355 -12.488083 0
M  V30 37 H 6.370309 2.489896 -14.688455 0
M  V30 38 H 6.244631 3.369304 -10.974984 0
M  V30 39 H 5.834839 1.313201 -11.941733 0
M  V30 40 H 4.901606 0.995800 -13.422177 0
M  V30 41 H 8.419226 0.914297 -14.718308 0
M  V30 42 H 9.040363 0.617910 -13.093340 0
M  V30 43 H 10.230558 6.198114 -9.918878 0
M  V30 44 H 8.860015 7.787221 -12.935809 0
M  V30 45 H 9.059161 8.593637 -8.407320 0
M  V30 46 H 7.640056 5.544542 -15.674245 0
M  V30 47 H 8.397610 4.549582 -14.339473 0
M  V30 48 H 5.446622 5.138991 -10.141821 0
M  V30 49 H 8.581628 8.613254 -10.798072 0
M  V30 50 H 6.780882 7.208363 -13.989646 0
M  V30 51 H 7.039200 6.727539 -11.725693 0
M  V30 END ATOM
M  V30 BEGIN BOND
M  V30 1 1 6 5
M  V30 2 1 8 2
M  V30 3 1 8 7
M  V30 4 1 9 2
M  V30 5 1 11 3
M  V30 6 1 12 1
M  V30 7 1 12 6
M  V30 8 1 13 3
M  V30 9 1 13 6
M  V30 10 1 14 10
M  V30 11 1 14 12
M  V30 12 1 15 1
M  V30 13 1 15 10
M  V30 14 1 17 4
M  V30 15 1 17 11
M  V30 16 1 18 7
M  V30 17 1 18 9
M  V30 18 1 18 16
M  V30 19 1 19 5
M  V30 20 2 20 9
M  V30 21 1 21 13
M  V30 22 2 22 16
M  V30 23 1 22 17
M  V30 24 1 23 5
M  V30 25 1 23 11
M  V30 26 1 23 19
M  V30 27 1 24 2
M  V30 28 1 25 2
M  V30 29 1 26 3
M  V30 30 1 27 3
M  V30 31 1 28 4
M  V30 32 1 29 4
M  V30 33 1 30 4
M  V30 34 1 5 31 CFG=3
M  V30 35 1 6 32 CFG=1
M  V30 36 1 33 8
M  V30 37 1 34 8
M  V30 38 1 35 10
M  V30 39 1 36 10
M  V30 40 1 12 37 CFG=3
M  V30 41 1 13 38 CFG=1
M  V30 42 1 39 14
M  V30 43 1 40 14
M  V30 44 1 41 15
M  V30 45 1 42 15
M  V30 46 1 43 16
M  V30 47 1 17 44 CFG=3
M  V30 48 1 18 45 CFG=1
M  V30 49 1 46 19
M  V30 50 1 47 19
M  V30 51 1 48 21
M  V30 52 1 49 22
M  V30 53 1 23 50 CFG=3
M  V30 54 1 11 51 CFG=1
M  V30 END BOND
M  V30 END CTAB
M  END
>  <i_epik_Tot_Q>  (1) 
1

>  <i_epik_Tot_abs_Q>  (1) 
1

>  <i_i_glide_confnum>  (1) 
209

>  <i_i_glide_lignum>  (1) 
101

>  <i_i_glide_posenum>  (1) 
170

>  <i_i_glide_rotatable_bonds>  (1) 
5

>  <i_lp_mmshare_version>  (1) 
72125

>  <i_m_source_file_index>  (1) 
56

>  <i_f3d_flags>  (1) 
0

>  <num_sample>  (1) 
100

>  <b_lp_Chiralities_Consistent>  (1) 
1

>  <r_epik_Charging_Adjusted_Penalty>  (1) 
0.1887110856522376

>  <r_epik_Ionization_Penalty>  (1) 
0.094355642401006162

>  <r_epik_Ionization_Penalty_Charging>  (1) 
0.094355542826118813

>  <r_epik_Ionization_Penalty_Neutral>  (1) 
9.9574887353862298e-08

>  <r_epik_State_Penalty>  (1) 
0.094355542826118799

>  <r_glide_ring_energy>  (1) 
0

>  <r_i_docking_score>  (1) 
-6.113295691877731

>  <r_i_glide_ecoul>  (1) 
-3.2290746726370623

>  <r_i_glide_eff_state_penalty>  (1) 
0.094355542826118799

>  <r_i_glide_einternal>  (1) 
5.8961390633812876

>  <r_i_glide_emodel>  (1) 
-51.830299705870786

>  <r_i_glide_emodel_strain>  (1) 
0.85656718536171184

>  <r_i_glide_energy>  (1) 
-41.007801987995812

>  <r_i_glide_erotb>  (1) 
0.49519417565235591

>  <r_i_glide_esite>  (1) 
-0.041748265530583133

>  <r_i_glide_evdw>  (1) 
-37.778727315358751

>  <r_i_glide_gscore>  (1) 
-6.2076512347038495

>  <r_i_glide_gscore_strain>  (1) 
0

>  <r_i_glide_hbond>  (1) 
-0.21607415750987372

>  <r_i_glide_ligand_efficiency>  (1) 
-0.26579546486424915

>  <r_i_glide_ligand_efficiency_ln>  (1) 
-1.4782503305966335

>  <r_i_glide_ligand_efficiency_sa>  (1) 
-0.75588694592173522

>  <r_i_glide_lipo>  (1) 
-1.8268858584366006

>  <r_i_glide_metal>  (1) 
-0

>  <r_i_glide_rewards>  (1) 
-2.2448395622156503

>  <r_lp_Energy>  (1) 
19.169269

>  <r_lp_tautomer_probability>  (1) 
0.99995000000000001

>  <s_epik_cmdline>  (1) 
J2VwaWtfcHl0aG9uJywgJy1waHQnLCAnMS4wJywgJy1waCcsICc3LjQnLCAnLXRuJywgJzgnLCAnLW1hJywgJzUwMCcsICctaW1hZScsICc8aW5maWxlLm1hZT4nLCAnLW9tYWUnLCAnPG91dGZpbGUubWFlPic=

>  <s_epik_input>  (1) 
W0NIMl0xW0NIMl1bQ0gyXU9bQ0BASF0xW0NASF0yW0NASF0oW09IXSlbQ0gyXU4oW0NASF0oW0NASF0yMylbQ0gyXTMpW0NASF0oW0NIM10pXFtDSF09W0NIXVxbQ0BIXTRTW0NIMl1bQ0gyXUM0PU8=

>  <s_glide_docking_method>  (1) 
confgen

>  <s_i_glide_gridfile>  (1) 
gpcr_drd2_6luq_protein_autoprepared_prepared

>  <s_lp_Force_Field>  (1) 
S-OPLS

>  <s_lp_Variant>  (1) 
DiffSBDD_55_num_sample_100-2

>  <s_m_source_file>  (1) 
generated__ligand_DiffSBDD_2026-05-06_prepared.sdf

>  <GenAI_Model>  (1) 
DiffSBDD

>  <Protein>  (1) 
generic_title2

$$$$
DiffSBDD_7_num_sample_100
     RDKit          3D

  0  0  0  0  0  0  0  0  0  0999 V3000
M  V30 BEGIN CTAB
M  V30 COUNTS 61 65 0 0 1
M  V30 BEGIN ATOM
M  V30 1 C 6.596085 4.847724 -11.076709 0 CFG=1
M  V30 2 C 6.386278 6.019207 -17.154705 0
M  V30 3 C 7.478745 5.132707 -17.278962 0
M  V30 4 O 5.385609 5.600003 -11.077853 0
M  V30 5 C 9.650772 6.733736 -9.638555 0 CFG=2
M  V30 6 C 11.434828 7.825797 -4.510114 0
M  V30 7 F 7.196848 5.166691 -19.635637 0
M  V30 8 C 11.394700 6.268925 -6.519751 0
M  V30 9 C 11.394611 8.589047 -7.771996 0 CFG=2
M  V30 10 C 7.989391 4.729380 -18.656539 0
M  V30 11 C 5.817863 5.125971 -12.363371 0 CFG=1
M  V30 12 C 13.289187 9.769491 -6.222630 0
M  V30 13 F 9.208017 5.236279 -18.836580 0
M  V30 14 C 8.973517 5.255736 -11.447722 0 CFG=1
M  V30 15 C 10.349466 7.158468 -10.958632 0
M  V30 16 N 7.732397 5.769241 -10.899930 0 CFG=2 CHG=1
M  V30 17 C 9.776998 6.329221 -12.115369 0
M  V30 18 C 12.446997 8.569133 -8.896285 0
M  V30 19 O 13.433984 7.823435 -8.747081 0
M  V30 20 C 11.802600 9.446187 -6.524009 0 CFG=2
M  V30 21 F 8.063869 3.400587 -18.735379 0
M  V30 22 O 12.232423 9.300376 -9.883786 0 CHG=-1
M  V30 23 C 8.100729 4.622067 -16.122143 0
M  V30 24 C 7.632207 4.990064 -14.846594 0
M  V30 25 C 6.035982 6.280085 -13.341413 0
M  V30 26 O 11.034952 10.170187 -4.371353 0
M  V30 27 C 6.539375 5.874048 -14.720369 0
M  V30 28 C 10.705706 7.218277 -7.494588 0 CFG=1
M  V30 29 C 11.568577 6.605892 -5.051566 0
M  V30 30 C 5.918011 6.389739 -15.878217 0
M  V30 31 O 10.614478 6.393928 -8.659357 0
M  V30 32 C 8.834147 5.495523 -9.985819 0 CFG=2
M  V30 33 C 11.010361 9.076428 -5.259479 0 CFG=2
M  V30 34 H 6.570234 3.914334 -10.519286 0
M  V30 35 H 5.908550 6.414693 -18.037184 0
M  V30 36 H 9.035133 7.548156 -9.277229 0
M  V30 37 H 11.605822 7.942702 -3.449843 0
M  V30 38 H 12.373377 5.998488 -6.895207 0
M  V30 39 H 10.803145 5.369352 -6.546424 0
M  V30 40 H 10.572919 9.134197 -8.232840 0
M  V30 41 H 5.194318 4.323527 -12.752046 0
M  V30 42 H 13.591699 9.470040 -5.219470 0
M  V30 43 H 14.014698 9.369815 -6.920022 0
M  V30 44 H 13.425131 10.848673 -6.291596 0
M  V30 45 H 8.894082 4.255593 -11.870854 0
M  V30 46 H 10.218213 8.224540 -11.146567 0
M  V30 47 H 11.420462 6.970181 -10.902271 0
M  V30 48 H 9.136079 6.927368 -12.763023 0
M  V30 49 H 10.566355 5.891101 -12.726810 0
M  V30 50 H 11.434675 10.436881 -6.776815 0
M  V30 51 H 8.938197 3.947126 -16.214477 0
M  V30 52 H 8.110492 4.594097 -13.969190 0
M  V30 53 H 5.082140 6.793846 -13.456718 0
M  V30 54 H 6.714394 7.022206 -12.924296 0
M  V30 55 H 11.936871 10.330380 -4.136513 0
M  V30 56 H 9.692474 7.384609 -7.125691 0
M  V30 57 H 11.852195 5.783993 -4.413360 0
M  V30 58 H 5.082417 7.069567 -15.788707 0
M  V30 59 H 8.547605 4.752087 -9.244225 0
M  V30 60 H 9.957136 8.950942 -5.503437 0
M  V30 61 H 7.535257 6.766308 -10.866669 0
M  V30 END ATOM
M  V30 BEGIN BOND
M  V30 1 2 3 2
M  V30 2 1 4 1
M  V30 3 1 10 3
M  V30 4 1 10 7
M  V30 5 1 11 1
M  V30 6 1 11 4
M  V30 7 1 13 10
M  V30 8 1 15 5
M  V30 9 1 16 1
M  V30 10 1 16 14
M  V30 11 1 17 14
M  V30 12 1 17 15
M  V30 13 1 18 9
M  V30 14 2 19 18
M  V30 15 1 20 9
M  V30 16 1 20 12
M  V30 17 1 21 10
M  V30 18 1 22 18
M  V30 19 1 23 3
M  V30 20 2 24 23
M  V30 21 1 25 11
M  V30 22 1 27 24
M  V30 23 1 27 25
M  V30 24 1 28 8
M  V30 25 1 28 9
M  V30 26 2 29 6
M  V30 27 1 29 8
M  V30 28 1 30 2
M  V30 29 2 30 27
M  V30 30 1 31 5
M  V30 31 1 31 28
M  V30 32 1 32 5
M  V30 33 1 32 14
M  V30 34 1 32 16
M  V30 35 1 33 6
M  V30 36 1 33 20
M  V30 37 1 33 26
M  V30 38 1 1 34 CFG=1
M  V30 39 1 35 2
M  V30 40 1 5 36 CFG=1
M  V30 41 1 37 6
M  V30 42 1 38 8
M  V30 43 1 39 8
M  V30 44 1 9 40 CFG=3
M  V30 45 1 11 41 CFG=3
M  V30 46 1 42 12
M  V30 47 1 43 12
M  V30 48 1 44 12
M  V30 49 1 14 45 CFG=1
M  V30 50 1 46 15
M  V30 51 1 47 15
M  V30 52 1 48 17
M  V30 53 1 49 17
M  V30 54 1 20 50 CFG=3
M  V30 55 1 51 23
M  V30 56 1 52 24
M  V30 57 1 53 25
M  V30 58 1 54 25
M  V30 59 1 55 26
M  V30 60 1 28 56 CFG=1
M  V30 61 1 57 29
M  V30 62 1 58 30
M  V30 63 1 32 59 CFG=1
M  V30 64 1 33 60 CFG=3
M  V30 65 1 16 61 CFG=3
M  V30 END BOND
M  V30 END CTAB
M  END
>  <i_epik_Tot_Q>  (1) 
0

>  <i_epik_Tot_abs_Q>  (1) 
2

>  <i_i_glide_confnum>  (1) 
20

>  <i_i_glide_lignum>  (1) 
13

>  <i_i_glide_posenum>  (1) 
398

>  <i_i_glide_rotatable_bonds>  (1) 
8

>  <i_lp_mmshare_version>  (1) 
72125

>  <i_m_source_file_index>  (1) 
8

>  <i_f3d_flags>  (1) 
2

>  <num_sample>  (1) 
100

>  <b_lp_Chiralities_Consistent>  (1) 
0

>  <r_epik_Charging_Adjusted_Penalty>  (1) 
0.97984479296791849

>  <r_epik_Ionization_Penalty>  (1) 
0.49008068678085143

>  <r_epik_Ionization_Penalty_Charging>  (1) 
0.49008059146589078

>  <r_epik_Ionization_Penalty_Neutral>  (1) 
9.5314960655475233e-08

>  <r_epik_State_Penalty>  (1) 
0.48976420150202771

>  <r_glide_ring_energy>  (1) 
0.19782434185497597

>  <r_i_docking_score>  (1) 
-6.1095430167264508

>  <r_i_glide_ecoul>  (1) 
-5.6798778925934652

>  <r_i_glide_eff_state_penalty>  (1) 
0.48976420150202771

>  <r_i_glide_einternal>  (1) 
4.9563001797400918

>  <r_i_glide_emodel>  (1) 
-40.618968322105403

>  <r_i_glide_emodel_strain>  (1) 
3.3675823124199553

>  <r_i_glide_energy>  (1) 
-34.62157927878237

>  <r_i_glide_erotb>  (1) 
0.46174917305607022

>  <r_i_glide_esite>  (1) 
-0.14899906230048526

>  <r_i_glide_evdw>  (1) 
-28.941701386188907

>  <r_i_glide_gscore>  (1) 
-6.5993072182284784

>  <r_i_glide_gscore_strain>  (1) 
0

>  <r_i_glide_hbond>  (1) 
-0.12101411356653445

>  <r_i_glide_ligand_efficiency>  (1) 
-0.18513766717352881

>  <r_i_glide_ligand_efficiency_ln>  (1) 
-1.3587307333992116

>  <r_i_glide_ligand_efficiency_sa>  (1) 
-0.59383542323443506

>  <r_i_glide_lipo>  (1) 
-2.8567735899798179

>  <r_i_glide_metal>  (1) 
-0

>  <r_i_glide_rewards>  (1) 
-1.6352028722392447

>  <r_lp_Energy>  (1) 
40.093779999999995

>  <s_epik_Chemistry_Notes>  (1) 
This compound contains an acetal/aminal-like group ( X-CH(R)-Y where X, Y are N, S, or O) that may be acid/base labile, releasing an aldehyde.

>  <s_epik_cmdline>  (1) 
J2VwaWtfcHl0aG9uJywgJy1waHQnLCAnMS4wJywgJy1waCcsICc3LjQnLCAnLXRuJywgJzgnLCAnLW1hJywgJzUwMCcsICctaW1hZScsICc8aW5maWxlLm1hZT4nLCAnLW9tYWUnLCAnPG91dGZpbGUubWFlPic=

>  <s_epik_input>  (1) 
RkMoRikoRiljMVtjSF1bY0hdYyhbY0hdW2NIXTEpW0NIMl1bQ0BASF0yT1tDSF0yTjNbQ0BASF0oW0NASF0zNClbQ0BIXShbQ0gyXVtDSDJdNClPW0NASF01W0NIMl1bQ0hdPVtDSF1bQ0BASF0oW09IXSlbQ0BASF0oW0NIM10pW0NASF01Qyg9TylbT0hd

>  <s_glide_docking_method>  (1) 
confgen

>  <s_i_glide_gridfile>  (1) 
gpcr_drd2_6luq_protein_autoprepared_prepared

>  <s_lp_Force_Field>  (1) 
S-OPLS

>  <s_lp_Variant>  (1) 
DiffSBDD_7_num_sample_100-2

>  <s_m_source_file>  (1) 
generated__ligand_DiffSBDD_2026-05-06_prepared.sdf

>  <GenAI_Model>  (1) 
DiffSBDD

>  <Protein>  (1) 
generic_title2

$$$$
DiffSBDD_25_num_sample_100
     RDKit          3D

  0  0  0  0  0  0  0  0  0  0999 V3000
M  V30 BEGIN CTAB
M  V30 COUNTS 66 69 0 0 1
M  V30 BEGIN ATOM
M  V30 1 C 7.009585 5.275876 -18.537577 0
M  V30 2 C 11.066562 8.281795 -8.079788 0
M  V30 3 C 9.312486 6.401645 -7.884084 0
M  V30 4 C 7.481970 5.930311 -12.206666 0 CFG=2
M  V30 5 C 12.560431 8.601815 -3.999751 0
M  V30 6 O 10.630232 8.508520 -5.329213 0
M  V30 7 C 10.900784 7.151444 -5.053581 0 CFG=1
M  V30 8 C 11.713829 9.349264 -5.026543 0 CFG=2
M  V30 9 F 11.165585 8.453306 -9.393797 0
M  V30 10 C 12.379443 9.803722 -6.336248 0
M  V30 11 C 5.796035 7.398379 -15.243459 0
M  V30 12 C 11.346865 6.372868 -6.317443 0
M  V30 13 F 10.014251 8.987761 -7.698851 0
M  V30 14 C 9.228415 4.444408 -11.066630 0 CFG=1
M  V30 15 N 5.948751 6.819486 -16.490194 0
M  V30 16 C 10.802060 6.798351 -7.709202 0 CFG=2
M  V30 17 O 9.863452 6.006404 -12.691279 0
M  V30 18 C 7.975565 8.483488 -12.691989 0
M  V30 19 C 9.000319 4.569234 -9.544853 0
M  V30 20 F 8.632935 3.458856 -11.730698 0
M  V30 21 C 7.085130 7.245363 -12.954980 0 CFG=1
M  V30 22 C 9.363234 6.703452 -10.450886 0
M  V30 23 C 7.034611 6.053565 -16.325180 0
M  V30 24 C 6.339931 5.411017 -11.294797 0
M  V30 25 C 11.909439 7.232634 -3.894739 0
M  V30 26 O 7.620274 6.133297 -15.095333 0
M  V30 27 O 5.361683 4.821943 -12.111438 0
M  V30 28 C 12.404413 8.840446 -7.564551 0
M  V30 29 N 8.901417 5.995966 -9.251962 0 CFG=2 CHG=1
M  V30 30 C 6.785913 6.973456 -14.406690 0
M  V30 31 O 7.596688 5.246433 -17.243908 0
M  V30 32 C 8.937180 5.823842 -11.640970 0 CFG=1
M  V30 33 H 7.545441 4.602038 -19.201977 0
M  V30 34 H 5.966914 4.957452 -18.506723 0
M  V30 35 H 7.061394 6.279414 -18.965393 0
M  V30 36 H 8.641624 7.186968 -7.543562 0
M  V30 37 H 9.066399 5.567703 -7.226560 0
M  V30 38 H 7.519454 5.154953 -12.971334 0
M  V30 39 H 13.604101 8.570046 -4.290842 0
M  V30 40 H 12.532644 9.103605 -3.030797 0
M  V30 41 H 9.976417 6.690443 -4.705847 0
M  V30 42 H 11.302226 10.230931 -4.535038 0
M  V30 43 H 13.391743 10.143743 -6.115210 0
M  V30 44 H 11.837398 10.696909 -6.652225 0
M  V30 45 H 4.972845 8.066486 -15.038518 0
M  V30 46 H 11.009864 5.369383 -6.157849 0
M  V30 47 H 12.412323 6.188370 -6.363443 0
M  V30 48 H 10.257101 4.198566 -11.226655 0
M  V30 49 H 11.376192 6.190351 -8.405312 0
M  V30 50 H 9.697601 5.360218 -13.364777 0
M  V30 51 H 7.835233 9.257253 -13.440803 0
M  V30 52 H 7.732333 8.929220 -11.727488 0
M  V30 53 H 9.043506 8.290959 -12.691874 0
M  V30 54 H 9.824265 4.107808 -8.994574 0
M  V30 55 H 8.055413 4.170144 -9.193386 0
M  V30 56 H 6.120747 7.545520 -12.544304 0
M  V30 57 H 10.449567 6.683461 -10.461901 0
M  V30 58 H 9.034647 7.737301 -10.459365 0
M  V30 59 H 5.899853 6.176343 -10.661653 0
M  V30 60 H 6.634565 4.601560 -10.643170 0
M  V30 61 H 11.422934 7.156156 -2.925080 0
M  V30 62 H 12.634828 6.438199 -3.903711 0
M  V30 63 H 4.690012 4.456875 -11.556219 0
M  V30 64 H 13.084346 8.003353 -7.491305 0
M  V30 65 H 12.863872 9.369317 -8.391810 0
M  V30 66 H 7.913519 6.236811 -9.256600 0
M  V30 END ATOM
M  V30 BEGIN BOND
M  V30 1 1 7 6
M  V30 2 1 8 5
M  V30 3 1 8 6
M  V30 4 1 9 2
M  V30 5 1 10 8
M  V30 6 1 12 7
M  V30 7 1 13 2
M  V30 8 1 15 11
M  V30 9 1 16 2
M  V30 10 1 16 3
M  V30 11 1 16 12
M  V30 12 1 19 14
M  V30 13 1 20 14
M  V30 14 1 21 4
M  V30 15 1 21 18
M  V30 16 2 23 15
M  V30 17 1 24 4
M  V30 18 1 25 5
M  V30 19 1 25 7
M  V30 20 1 26 23
M  V30 21 1 27 24
M  V30 22 1 28 2
M  V30 23 1 28 10
M  V30 24 1 29 3
M  V30 25 1 29 19
M  V30 26 1 29 22
M  V30 27 2 30 11
M  V30 28 1 30 21
M  V30 29 1 30 26
M  V30 30 1 31 1
M  V30 31 1 31 23
M  V30 32 1 32 4
M  V30 33 1 32 14
M  V30 34 1 32 17 CFG=3
M  V30 35 1 32 22
M  V30 36 1 33 1
M  V30 37 1 34 1
M  V30 38 1 35 1
M  V30 39 1 36 3
M  V30 40 1 37 3
M  V30 41 1 4 38 CFG=3
M  V30 42 1 39 5
M  V30 43 1 40 5
M  V30 44 1 7 41 CFG=1
M  V30 45 1 8 42 CFG=1
M  V30 46 1 43 10
M  V30 47 1 44 10
M  V30 48 1 45 11
M  V30 49 1 46 12
M  V30 50 1 47 12
M  V30 51 1 14 48 CFG=1
M  V30 52 1 16 49 CFG=3
M  V30 53 1 50 17
M  V30 54 1 51 18
M  V30 55 1 52 18
M  V30 56 1 53 18
M  V30 57 1 54 19
M  V30 58 1 55 19
M  V30 59 1 21 56 CFG=1
M  V30 60 1 57 22
M  V30 61 1 58 22
M  V30 62 1 59 24
M  V30 63 1 60 24
M  V30 64 1 61 25
M  V30 65 1 62 25
M  V30 66 1 63 27
M  V30 67 1 64 28
M  V30 68 1 65 28
M  V30 69 1 29 66 CFG=1
M  V30 END BOND
M  V30 END CTAB
M  END
>  <i_epik_Tot_Q>  (1) 
1

>  <i_epik_Tot_abs_Q>  (1) 
1

>  <i_i_glide_confnum>  (1) 
358

>  <i_i_glide_lignum>  (1) 
38

>  <i_i_glide_posenum>  (1) 
400

>  <i_i_glide_rotatable_bonds>  (1) 
9

>  <i_lp_mmshare_version>  (1) 
72125

>  <i_m_source_file_index>  (1) 
26

>  <i_f3d_flags>  (1) 
0

>  <num_sample>  (1) 
100

>  <b_lp_Chiralities_Consistent>  (1) 
1

>  <r_epik_Charging_Adjusted_Penalty>  (1) 
0.21543991348680042

>  <r_epik_Ionization_Penalty>  (1) 
0.10772808098718631

>  <r_epik_Ionization_Penalty_Charging>  (1) 
0.10771995674340021

>  <r_epik_Ionization_Penalty_Neutral>  (1) 
8.124243786105112e-06

>  <r_epik_State_Penalty>  (1) 
0.10771995674340022

>  <r_glide_ring_energy>  (1) 
0

>  <r_i_docking_score>  (1) 
-6.1080380909940351

>  <r_i_glide_ecoul>  (1) 
-6.2684036136632351

>  <r_i_glide_eff_state_penalty>  (1) 
0.10771995674340022

>  <r_i_glide_einternal>  (1) 
27.076679243674128

>  <r_i_glide_emodel>  (1) 
-27.948606004697467

>  <r_i_glide_emodel_strain>  (1) 
5.2433416069816445

>  <r_i_glide_energy>  (1) 
-32.114322936755919

>  <r_i_glide_erotb>  (1) 
0.56277696399540145

>  <r_i_glide_esite>  (1) 
-0.11139431574729045

>  <r_i_glide_evdw>  (1) 
-25.845919323092684

>  <r_i_glide_gscore>  (1) 
-6.2157580477374355

>  <r_i_glide_gscore_strain>  (1) 
0.31083540174541113

>  <r_i_glide_hbond>  (1) 
-0.14261327656463618

>  <r_i_glide_ligand_efficiency>  (1) 
-0.1908761903435636

>  <r_i_glide_ligand_efficiency_ln>  (1) 
-1.3677562274035711

>  <r_i_glide_ligand_efficiency_sa>  (1) 
-0.60599413069411034

>  <r_i_glide_lipo>  (1) 
-3.0396051691586035

>  <r_i_glide_metal>  (1) 
-0

>  <r_i_glide_rewards>  (1) 
-1.5632011438035978

>  <r_lp_Energy>  (1) 
39.515628999999997

>  <s_epik_cmdline>  (1) 
J2VwaWtfcHl0aG9uJywgJy1waHQnLCAnMS4wJywgJy1waCcsICc3LjQnLCAnLXRuJywgJzgnLCAnLW1hJywgJzUwMCcsICctaW1hZScsICc8aW5maWxlLm1hZT4nLCAnLW9tYWUnLCAnPG91dGZpbGUubWFlPic=

>  <s_epik_input>  (1) 
W0NIM11PYzFuW2NIXWMobzEpW0NASF0oW0NIM10pW0NASF0oW0NIMl1bT0hdKVtDQF0yKFtPSF0pW0NASF0oRilbQ0gyXU4oW0NIMl0yKVtDSDJdW0NASF0oW0NIMl0zKUMoRikoRilbQ0gyXVtDSDJdW0NASF0oW0NIMl1bQ0gyXTQpT1tDQEBIXTM0

>  <s_glide_docking_method>  (1) 
confgen

>  <s_i_glide_gridfile>  (1) 
gpcr_drd2_6luq_protein_autoprepared_prepared

>  <s_lp_Force_Field>  (1) 
S-OPLS

>  <s_lp_Variant>  (1) 
DiffSBDD_25_num_sample_100-1

>  <s_m_source_file>  (1) 
generated__ligand_DiffSBDD_2026-05-06_prepared.sdf

>  <GenAI_Model>  (1) 
DiffSBDD

>  <Protein>  (1) 
generic_title2

$$$$
DiffSBDD_28_num_sample_100
     RDKit          3D

  0  0  0  0  0  0  0  0  0  0999 V3000
M  V30 BEGIN CTAB
M  V30 COUNTS 43 44 0 0 1
M  V30 BEGIN ATOM
M  V30 1 C 12.267809 8.831812 -3.016040 0
M  V30 2 C 7.824309 6.215954 -12.324235 0
M  V30 3 C 12.110684 8.894210 -4.543881 0
M  V30 4 N 10.422454 6.581985 -7.154648 0
M  V30 5 C 11.546778 6.432788 -2.960015 0
M  V30 6 C 10.105573 6.546032 -8.394772 0
M  V30 7 C 11.182733 6.569274 -4.427832 0
M  V30 8 O 10.075796 7.708048 -10.548143 0
M  V30 9 C 9.087699 5.095174 -10.482091 0
M  V30 10 C 6.623651 4.990191 -10.549321 0
M  V30 11 C 9.431072 5.280062 -8.975947 0
M  V30 12 C 7.973436 5.072665 -13.346531 0
M  V30 13 C 11.342441 8.748706 -7.399000 0
M  V30 14 N 11.006443 8.763948 -8.756734 0
M  V30 15 N 7.830800 5.769707 -10.904760 0 CFG=2 CHG=1
M  V30 16 C 12.631190 7.426542 -2.552770 0
M  V30 17 C 10.385086 7.725910 -9.361709 0
M  V30 18 C 11.066941 7.696341 -6.600682 0
M  V30 19 C 11.433092 7.671847 -5.174481 0
M  V30 20 H 13.042950 9.523000 -2.699846 0
M  V30 21 H 11.351874 9.158009 -2.524019 0
M  V30 22 H 6.899408 6.759756 -12.518419 0
M  V30 23 H 8.625952 6.937258 -12.480328 0
M  V30 24 H 13.096406 8.978954 -4.994267 0
M  V30 25 H 11.563194 9.800431 -4.802314 0
M  V30 26 H 10.651152 6.567037 -2.352544 0
M  V30 27 H 11.911438 5.421625 -2.773889 0
M  V30 28 H 10.701513 5.720232 -4.875963 0
M  V30 29 H 9.922032 5.388295 -11.115483 0
M  V30 30 H 8.979501 4.028899 -10.688686 0
M  V30 31 H 6.565983 4.055659 -11.107781 0
M  V30 32 H 6.643026 4.736759 -9.491998 0
M  V30 33 H 5.717415 5.566540 -10.741994 0
M  V30 34 H 10.098346 4.458625 -8.713811 0
M  V30 35 H 8.541364 5.093519 -8.376149 0
M  V30 36 H 7.999730 5.475620 -14.359729 0
M  V30 37 H 8.896204 4.510347 -13.202912 0
M  V30 38 H 7.141232 4.371445 -13.303548 0
M  V30 39 H 11.838953 9.646204 -7.063496 0
M  V30 40 H 11.244098 9.586784 -9.290855 0
M  V30 41 H 13.573829 7.136117 -3.015534 0
M  V30 42 H 12.778606 7.402161 -1.475688 0
M  V30 43 H 7.749166 6.632157 -10.359013 0
M  V30 END ATOM
M  V30 BEGIN BOND
M  V30 1 1 3 1
M  V30 2 2 6 4
M  V30 3 1 7 5
M  V30 4 1 11 6
M  V30 5 1 11 9
M  V30 6 1 12 2
M  V30 7 1 14 13
M  V30 8 1 15 2
M  V30 9 1 15 9
M  V30 10 1 15 10
M  V30 11 1 16 1
M  V30 12 1 16 5
M  V30 13 1 17 6
M  V30 14 2 17 8
M  V30 15 1 17 14
M  V30 16 1 18 4
M  V30 17 2 18 13
M  V30 18 1 19 3
M  V30 19 2 19 7
M  V30 20 1 19 18
M  V30 21 1 20 1
M  V30 22 1 21 1
M  V30 23 1 22 2
M  V30 24 1 23 2
M  V30 25 1 24 3
M  V30 26 1 25 3
M  V30 27 1 26 5
M  V30 28 1 27 5
M  V30 29 1 28 7
M  V30 30 1 29 9
M  V30 31 1 30 9
M  V30 32 1 31 10
M  V30 33 1 32 10
M  V30 34 1 33 10
M  V30 35 1 34 11
M  V30 36 1 35 11
M  V30 37 1 36 12
M  V30 38 1 37 12
M  V30 39 1 38 12
M  V30 40 1 39 13
M  V30 41 1 40 14
M  V30 42 1 41 16
M  V30 43 1 42 16
M  V30 44 1 15 43 CFG=1
M  V30 END BOND
M  V30 END CTAB
M  END
>  <i_epik_Tot_Q>  (1) 
1

>  <i_epik_Tot_abs_Q>  (1) 
1

>  <i_i_glide_confnum>  (1) 
33

>  <i_i_glide_lignum>  (1) 
48

>  <i_i_glide_posenum>  (1) 
205

>  <i_i_glide_rotatable_bonds>  (1) 
5

>  <i_lp_mmshare_version>  (1) 
72125

>  <i_m_source_file_index>  (1) 
29

>  <i_f3d_flags>  (1) 
0

>  <num_sample>  (1) 
100

>  <b_lp_Chiralities_Consistent>  (1) 
1

>  <r_epik_Charging_Adjusted_Penalty>  (1) 
0.16160378579191387

>  <r_epik_Ionization_Penalty>  (1) 
0.086651210493904285

>  <r_epik_Ionization_Penalty_Charging>  (1) 
0.086651186480528317

>  <r_epik_Ionization_Penalty_Neutral>  (1) 
2.4013375966173516e-08

>  <r_epik_State_Penalty>  (1) 
0.074952599311385565

>  <r_glide_ring_energy>  (1) 
0

>  <r_i_docking_score>  (1) 
-6.1063719281450144

>  <r_i_glide_ecoul>  (1) 
-5.3980392271696731

>  <r_i_glide_eff_state_penalty>  (1) 
0.074952599311385565

>  <r_i_glide_einternal>  (1) 
13.382777909142135

>  <r_i_glide_emodel>  (1) 
-44.436166445082421

>  <r_i_glide_emodel_strain>  (1) 
1.4985325653198629

>  <r_i_glide_energy>  (1) 
-35.85002142220015

>  <r_i_glide_erotb>  (1) 
1.0307106156986021

>  <r_i_glide_esite>  (1) 
-0.10000000000000001

>  <r_i_glide_evdw>  (1) 
-30.451982195030475

>  <r_i_glide_gscore>  (1) 
-6.1813245274564004

>  <r_i_glide_gscore_strain>  (1) 
0

>  <r_i_glide_hbond>  (1) 
-0.20000000000000001

>  <r_i_glide_ligand_efficiency>  (1) 
-0.32138799621815867

>  <r_i_glide_ligand_efficiency_ln>  (1) 
-1.5480964366282186

>  <r_i_glide_ligand_efficiency_sa>  (1) 
-0.85759225898797686

>  <r_i_glide_lipo>  (1) 
-2.2250330999764962

>  <r_i_glide_metal>  (1) 
-0

>  <r_i_glide_rewards>  (1) 
-2.3546970493515316

>  <r_lp_Energy>  (1) 
45.017665000000001

>  <s_epik_cmdline>  (1) 
J2VwaWtfcHl0aG9uJywgJy1waHQnLCAnMS4wJywgJy1waCcsICc3LjQnLCAnLXRuJywgJzgnLCAnLW1hJywgJzUwMCcsICctaW1hZScsICc8aW5maWxlLm1hZT4nLCAnLW9tYWUnLCAnPG91dGZpbGUubWFlPic=

>  <s_epik_input>  (1) 
W0NIMl0xW0NIMl1bQ0gyXVtDSDJdW0NIXT1DMWMoW2NIXVtuSF1jMj1PKW5jMltDSDJdW0NIMl1OKFtDSDNdKVtDSDJdW0NIM10=

>  <s_glide_docking_method>  (1) 
confgen

>  <s_i_glide_gridfile>  (1) 
gpcr_drd2_6luq_protein_autoprepared_prepared

>  <s_lp_Force_Field>  (1) 
S-OPLS

>  <s_lp_Variant>  (1) 
DiffSBDD_28_num_sample_100-2

>  <s_m_source_file>  (1) 
generated__ligand_DiffSBDD_2026-05-06_prepared.sdf

>  <GenAI_Model>  (1) 
DiffSBDD

>  <Protein>  (1) 
generic_title2

$$$$
DiffSBDD_16_num_sample_100
     RDKit          3D

  0  0  0  0  0  0  0  0  0  0999 V3000
M  V30 BEGIN CTAB
M  V30 COUNTS 54 57 0 0 1
M  V30 BEGIN ATOM
M  V30 1 C 6.637610 3.589239 -13.738423 0
M  V30 2 C 5.801671 6.655755 -12.588057 0
M  V30 3 C 11.675814 9.564388 -5.846969 0
M  V30 4 C 11.489704 8.980439 -7.115056 0
M  V30 5 C 9.442751 6.550865 -10.526987 0
M  V30 6 C 8.848750 5.010871 -14.930335 0 CFG=1
M  V30 7 C 6.579842 5.478629 -12.024176 0 CFG=1
M  V30 8 C 11.652082 8.760900 -4.691665 0
M  V30 9 C 11.235702 6.792603 -6.072672 0
M  V30 10 C 11.269904 7.597020 -7.229878 0
M  V30 11 C 8.381590 4.969265 -8.715604 0
M  V30 12 C 11.434839 7.371554 -4.803953 0
M  V30 13 C 7.703117 4.378794 -15.739436 0 CFG=1
M  V30 14 C 11.085420 6.969325 -8.596940 0
M  V30 15 C 9.861437 7.482060 -9.365481 0
M  V30 16 N 11.434838 6.569303 -3.663891 0
M  V30 17 C 6.082310 4.753964 -10.793697 0
M  V30 18 C 8.465107 5.379971 -10.204763 0 CFG=1
M  V30 19 C 8.910039 4.868161 -16.440218 0
M  V30 20 O 7.947780 5.670517 -14.041719 0
M  V30 21 C 7.440206 4.739734 -13.058109 0 CFG=2
M  V30 22 C 7.317724 3.108936 -15.034862 0
M  V30 23 N 7.117844 5.769301 -10.691668 0 CFG=1 CHG=1
M  V30 24 H 6.493909 2.755553 -13.050446 0
M  V30 25 H 5.639314 3.953677 -13.983464 0
M  V30 26 H 5.224469 6.345752 -13.458827 0
M  V30 27 H 5.113196 7.064727 -11.846927 0
M  V30 28 H 6.484355 7.449775 -12.891024 0
M  V30 29 H 11.843760 10.627436 -5.761523 0
M  V30 30 H 11.518682 9.595979 -8.000698 0
M  V30 31 H 8.991065 7.180496 -11.295695 0
M  V30 32 H 10.331563 6.169351 -11.021615 0
M  V30 33 H 9.571389 4.406688 -14.387681 0
M  V30 34 H 11.805446 9.208592 -3.720254 0
M  V30 35 H 11.072487 5.732469 -6.159604 0
M  V30 36 H 9.330203 4.583208 -8.348052 0
M  V30 37 H 8.066093 5.781984 -8.064906 0
M  V30 38 H 7.656958 4.169324 -8.566477 0
M  V30 39 H 6.830161 4.987015 -15.981481 0
M  V30 40 H 11.980392 7.159758 -9.189370 0
M  V30 41 H 11.034749 5.891961 -8.468985 0
M  V30 42 H 9.034847 7.645991 -8.680088 0
M  V30 43 H 10.094275 8.471131 -9.761307 0
M  V30 44 H 11.491574 6.973798 -2.740743 0
M  V30 45 H 11.189786 5.589274 -3.715424 0
M  V30 46 H 6.464153 3.769280 -10.546232 0
M  V30 47 H 5.178852 5.091242 -10.291714 0
M  V30 48 H 8.829936 4.482913 -10.692975 0
M  V30 49 H 8.808630 5.769316 -17.038125 0
M  V30 50 H 9.592713 4.124406 -16.845629 0
M  V30 51 H 8.293199 4.260425 -12.594326 0
M  V30 52 H 6.639958 2.518893 -15.652329 0
M  V30 53 H 8.199086 2.500396 -14.826529 0
M  V30 54 H 6.795891 6.653888 -10.265592 0
M  V30 END ATOM
M  V30 BEGIN BOND
M  V30 1 1 4 3
M  V30 2 1 7 2 CFG=3
M  V30 3 2 8 3
M  V30 4 2 10 4
M  V30 5 1 10 9
M  V30 6 1 12 8
M  V30 7 2 12 9
M  V30 8 1 13 6
M  V30 9 1 14 10
M  V30 10 1 15 5
M  V30 11 1 15 14
M  V30 12 1 16 12
M  V30 13 1 17 7
M  V30 14 1 18 5
M  V30 15 1 18 11
M  V30 16 1 19 6
M  V30 17 1 19 13
M  V30 18 1 20 6
M  V30 19 1 21 1
M  V30 20 1 21 7
M  V30 21 1 21 20
M  V30 22 1 22 1
M  V30 23 1 22 13
M  V30 24 1 23 7
M  V30 25 1 23 17
M  V30 26 1 23 18
M  V30 27 1 24 1
M  V30 28 1 25 1
M  V30 29 1 26 2
M  V30 30 1 27 2
M  V30 31 1 28 2
M  V30 32 1 29 3
M  V30 33 1 30 4
M  V30 34 1 31 5
M  V30 35 1 32 5
M  V30 36 1 6 33 CFG=1
M  V30 37 1 34 8
M  V30 38 1 35 9
M  V30 39 1 36 11
M  V30 40 1 37 11
M  V30 41 1 38 11
M  V30 42 1 13 39 CFG=3
M  V30 43 1 40 14
M  V30 44 1 41 14
M  V30 45 1 42 15
M  V30 46 1 43 15
M  V30 47 1 44 16
M  V30 48 1 45 16
M  V30 49 1 46 17
M  V30 50 1 47 17
M  V30 51 1 18 48 CFG=3
M  V30 52 1 49 19
M  V30 53 1 50 19
M  V30 54 1 21 51 CFG=1
M  V30 55 1 52 22
M  V30 56 1 53 22
M  V30 57 1 23 54 CFG=1
M  V30 END BOND
M  V30 END CTAB
M  END
>  <i_epik_Tot_Q>  (1) 
1

>  <i_epik_Tot_abs_Q>  (1) 
1

>  <i_i_glide_confnum>  (1) 
154

>  <i_i_glide_lignum>  (1) 
26

>  <i_i_glide_posenum>  (1) 
81

>  <i_i_glide_rotatable_bonds>  (1) 
6

>  <i_lp_mmshare_version>  (1) 
72125

>  <i_m_source_file_index>  (1) 
17

>  <i_f3d_flags>  (1) 
0

>  <num_sample>  (1) 
100

>  <b_lp_Chiralities_Consistent>  (1) 
1

>  <r_epik_Charging_Adjusted_Penalty>  (1) 
0.11272327168216571

>  <r_epik_Ionization_Penalty>  (1) 
0.057493963086777844

>  <r_epik_Ionization_Penalty_Charging>  (1) 
0.056361635841082856

>  <r_epik_Ionization_Penalty_Neutral>  (1) 
0.0011323272456949893

>  <r_epik_State_Penalty>  (1) 
0.056361635841082856

>  <r_glide_ring_energy>  (1) 
0

>  <r_i_docking_score>  (1) 
-6.1044135335960847

>  <r_i_glide_ecoul>  (1) 
-8.8552294179575668

>  <r_i_glide_eff_state_penalty>  (1) 
0.056361635841082856

>  <r_i_glide_einternal>  (1) 
3.9526158933381534

>  <r_i_glide_emodel>  (1) 
-48.720443258574242

>  <r_i_glide_emodel_strain>  (1) 
1.0407871215082878

>  <r_i_glide_energy>  (1) 
-37.559164854327207

>  <r_i_glide_erotb>  (1) 
1.1214719841998091

>  <r_i_glide_esite>  (1) 
-0.10000000000000001

>  <r_i_glide_evdw>  (1) 
-28.70393543636964

>  <r_i_glide_gscore>  (1) 
-6.1607751694371675

>  <r_i_glide_gscore_strain>  (1) 
0

>  <r_i_glide_hbond>  (1) 
-0.15972326282351151

>  <r_i_glide_ligand_efficiency>  (1) 
-0.26540928406939501

>  <r_i_glide_ligand_efficiency_ln>  (1) 
-1.4761025441851729

>  <r_i_glide_ligand_efficiency_sa>  (1) 
-0.75478869911099655

>  <r_i_glide_lipo>  (1) 
-2.1009713653922564

>  <r_i_glide_metal>  (1) 
-0

>  <r_i_glide_rewards>  (1) 
-2.1580713409090908

>  <r_lp_Energy>  (1) 
57.573436999999998

>  <s_epik_cmdline>  (1) 
J2VwaWtfcHl0aG9uJywgJy1waHQnLCAnMS4wJywgJy1waCcsICc3LjQnLCAnLXRuJywgJzgnLCAnLW1hJywgJzUwMCcsICctaW1hZScsICc8aW5maWxlLm1hZT4nLCAnLW9tYWUnLCAnPG91dGZpbGUubWFlPic=

>  <s_epik_input>  (1) 
W0NIXTEyW0NIXShbQ0gyXTEpW0NIMl1bQ0gyXVtDQEBIXShPMilbQ0BAXTMoW0NIM10pW0NIMl1OM1tDQEhdKFtDSDNdKVtDSDJdW0NIMl1bQ0gyXWM0W2NIXVtjSF1bY0hdYyhbY0hdNClbTkgyXQ==

>  <s_glide_docking_method>  (1) 
confgen

>  <s_i_glide_gridfile>  (1) 
gpcr_drd2_6luq_protein_autoprepared_prepared

>  <s_lp_Force_Field>  (1) 
S-OPLS

>  <s_lp_Variant>  (1) 
DiffSBDD_16_num_sample_100-1

>  <s_m_source_file>  (1) 
generated__ligand_DiffSBDD_2026-05-06_prepared.sdf

>  <GenAI_Model>  (1) 
DiffSBDD

>  <Protein>  (1) 
generic_title2

$$$$
DiffSBDD_61_num_sample_100
     RDKit          3D

  0  0  0  0  0  0  0  0  0  0999 V3000
M  V30 BEGIN CTAB
M  V30 COUNTS 52 54 0 0 1
M  V30 BEGIN ATOM
M  V30 1 N 11.087200 7.689452 -5.185794 0 CFG=2 CHG=1
M  V30 2 C 5.836658 5.901156 -14.105037 0
M  V30 3 C 6.834500 6.225119 -12.984551 0 CFG=1
M  V30 4 O 12.629560 7.193999 -1.891486 0
M  V30 5 C 13.034834 8.493705 -2.197762 0
M  V30 6 O 6.366910 7.369380 -12.291701 0
M  V30 7 C 10.588900 7.713829 -10.600806 0
M  V30 8 O 5.834895 3.769288 -10.291722 0
M  V30 9 C 10.112205 6.969526 -9.354052 0
M  V30 10 C 9.277734 6.366769 -12.447092 0 CFG=1
M  V30 11 C 11.195480 6.329972 -5.761652 0
M  V30 12 C 6.979118 5.025679 -12.021621 0 CFG=2
M  V30 13 C 5.927625 5.027797 -10.900453 0
M  V30 14 C 10.415118 6.186614 -7.056353 0
M  V30 15 C 8.226986 6.532603 -13.549888 0
M  V30 16 C 10.879370 7.223316 -8.070760 0 CFG=2
M  V30 17 O 5.034749 4.969339 -13.891637 0 CHG=-1
M  V30 18 C 11.411713 8.775435 -6.153175 0
M  V30 19 C 9.511273 7.705399 -11.696631 0
M  V30 20 C 10.661694 8.618444 -7.482018 0
M  V30 21 C 11.873489 6.781231 -2.949823 0
M  V30 22 C 11.834814 7.769425 -3.869651 0
M  V30 23 C 12.562386 8.876551 -3.426290 0
M  V30 24 S 8.673847 5.005793 -11.404092 0
M  V30 25 O 5.896141 6.593852 -15.146367 0
M  V30 26 H 13.643789 8.969286 -1.445244 0
M  V30 27 H 6.768758 7.405187 -11.427956 0
M  V30 28 H 11.525593 7.295238 -10.970574 0
M  V30 29 H 10.803691 8.747512 -10.335122 0
M  V30 30 H 5.492911 3.930316 -9.414165 0
M  V30 31 H 9.049838 7.149804 -9.183160 0
M  V30 32 H 10.220069 5.907627 -9.549870 0
M  V30 33 H 10.224230 6.056776 -12.891420 0
M  V30 34 H 12.234832 6.048623 -5.916442 0
M  V30 35 H 10.777071 5.644610 -5.033774 0
M  V30 36 H 6.898928 4.091675 -12.580063 0
M  V30 37 H 4.940750 5.287708 -11.280664 0
M  V30 38 H 6.181070 5.768911 -10.142561 0
M  V30 39 H 9.344673 6.287474 -6.863426 0
M  V30 40 H 10.560144 5.191764 -7.478090 0
M  V30 41 H 8.234617 7.537027 -13.964416 0
M  V30 42 H 8.458122 5.839575 -14.362564 0
M  V30 43 H 11.940753 7.083268 -8.266641 0
M  V30 44 H 12.481518 8.811434 -6.352260 0
M  V30 45 H 11.147255 9.738367 -5.715438 0
M  V30 46 H 9.794824 8.453959 -12.433138 0
M  V30 47 H 8.582030 8.073787 -11.266780 0
M  V30 48 H 11.031580 9.369172 -8.178000 0
M  V30 49 H 9.595995 8.807993 -7.341108 0
M  V30 50 H 11.458689 5.785132 -2.876610 0
M  V30 51 H 12.725088 9.821856 -3.917584 0
M  V30 52 H 10.098623 7.798588 -5.005407 0
M  V30 END ATOM
M  V30 BEGIN BOND
M  V30 1 1 3 2
M  V30 2 1 5 4
M  V30 3 1 3 6 CFG=1
M  V30 4 1 9 7
M  V30 5 1 11 1
M  V30 6 1 12 3
M  V30 7 1 13 8
M  V30 8 1 13 12
M  V30 9 1 14 11
M  V30 10 1 15 3
M  V30 11 1 15 10
M  V30 12 1 16 9
M  V30 13 1 16 14
M  V30 14 1 17 2
M  V30 15 1 18 1
M  V30 16 1 19 7
M  V30 17 1 19 10
M  V30 18 1 20 16
M  V30 19 1 20 18
M  V30 20 1 21 4
M  V30 21 1 22 1
M  V30 22 2 22 21
M  V30 23 2 23 5
M  V30 24 1 23 22
M  V30 25 1 24 10
M  V30 26 1 24 12
M  V30 27 2 25 2
M  V30 28 1 26 5
M  V30 29 1 27 6
M  V30 30 1 28 7
M  V30 31 1 29 7
M  V30 32 1 30 8
M  V30 33 1 31 9
M  V30 34 1 32 9
M  V30 35 1 10 33 CFG=3
M  V30 36 1 34 11
M  V30 37 1 35 11
M  V30 38 1 12 36 CFG=3
M  V30 39 1 37 13
M  V30 40 1 38 13
M  V30 41 1 39 14
M  V30 42 1 40 14
M  V30 43 1 41 15
M  V30 44 1 42 15
M  V30 45 1 16 43 CFG=3
M  V30 46 1 44 18
M  V30 47 1 45 18
M  V30 48 1 46 19
M  V30 49 1 47 19
M  V30 50 1 48 20
M  V30 51 1 49 20
M  V30 52 1 50 21
M  V30 53 1 51 23
M  V30 54 1 1 52 CFG=1
M  V30 END BOND
M  V30 END CTAB
M  END
>  <i_epik_Tot_Q>  (1) 
0

>  <i_epik_Tot_abs_Q>  (1) 
2

>  <i_i_glide_confnum>  (1) 
27

>  <i_i_glide_lignum>  (1) 
121

>  <i_i_glide_posenum>  (1) 
7

>  <i_i_glide_rotatable_bonds>  (1) 
9

>  <i_lp_mmshare_version>  (1) 
72125

>  <i_m_source_file_index>  (1) 
62

>  <i_f3d_flags>  (1) 
0

>  <num_sample>  (1) 
100

>  <b_lp_Chiralities_Consistent>  (1) 
1

>  <r_epik_Charging_Adjusted_Penalty>  (1) 
0.30587031255842323

>  <r_epik_Ionization_Penalty>  (1) 
0.15296771237530521

>  <r_epik_Ionization_Penalty_Charging>  (1) 
0.15296734445016963

>  <r_epik_Ionization_Penalty_Neutral>  (1) 
3.6792513557102453e-07

>  <r_epik_State_Penalty>  (1) 
0.15290296810825357

>  <r_glide_ring_energy>  (1) 
0

>  <r_i_docking_score>  (1) 
-6.0996617159677147

>  <r_i_glide_ecoul>  (1) 
-8.2954969581431079

>  <r_i_glide_eff_state_penalty>  (1) 
0.15290296810825357

>  <r_i_glide_einternal>  (1) 
3.006601361303721

>  <r_i_glide_emodel>  (1) 
-47.569061996884066

>  <r_i_glide_emodel_strain>  (1) 
2.2067450273280045

>  <r_i_glide_energy>  (1) 
-37.380477315658823

>  <r_i_glide_erotb>  (1) 
0.84742595842419921

>  <r_i_glide_esite>  (1) 
0

>  <r_i_glide_evdw>  (1) 
-29.084980357515715

>  <r_i_glide_gscore>  (1) 
-6.2525646840759679

>  <r_i_glide_gscore_strain>  (1) 
0

>  <r_i_glide_hbond>  (1) 
-0.45439514435155615

>  <r_i_glide_ligand_efficiency>  (1) 
-0.2439864686387086

>  <r_i_glide_ligand_efficiency_ln>  (1) 
-1.4458026187955579

>  <r_i_glide_ligand_efficiency_sa>  (1) 
-0.71342076218350114

>  <r_i_glide_lipo>  (1) 
-1.9817917666464777

>  <r_i_glide_metal>  (1) 
-0

>  <r_i_glide_rewards>  (1) 
-1.9652301699048804

>  <r_lp_Energy>  (1) 
9.158987999999999

>  <s_epik_cmdline>  (1) 
J2VwaWtfcHl0aG9uJywgJy1waHQnLCAnMS4wJywgJy1waCcsICc3LjQnLCAnLXRuJywgJzgnLCAnLW1hJywgJzUwMCcsICctaW1hZScsICc8aW5maWxlLm1hZT4nLCAnLW9tYWUnLCAnPG91dGZpbGUubWFlPic=

>  <s_epik_input>  (1) 
W2NIXTFbY0hdb1tjSF1jMU4yW0NIMl1bQ0gyXVtDSF0oW0NIMl1bQ0gyXTIpW0NIMl1bQ0gyXVtDSDJdW0NASF0oW0NIMl0zKVNbQ0BASF0oW0NIMl1bT0hdKVtDQF0zKFtPSF0pQyg9TylbT0hd

>  <s_glide_docking_method>  (1) 
confgen

>  <s_i_glide_gridfile>  (1) 
gpcr_drd2_6luq_protein_autoprepared_prepared

>  <s_lp_Force_Field>  (1) 
S-OPLS

>  <s_lp_Variant>  (1) 
DiffSBDD_61_num_sample_100-1

>  <s_m_source_file>  (1) 
generated__ligand_DiffSBDD_2026-05-06_prepared.sdf

>  <GenAI_Model>  (1) 
DiffSBDD

>  <Protein>  (1) 
generic_title2

$$$$
DiffSBDD_44_num_sample_100
     RDKit          3D

  0  0  0  0  0  0  0  0  0  0999 V3000
M  V30 BEGIN CTAB
M  V30 COUNTS 56 58 0 0 1
M  V30 BEGIN ATOM
M  V30 1 C 9.194319 3.897447 -11.967634 0
M  V30 2 C 8.141735 4.910827 -12.484627 0 CFG=1
M  V30 3 C 11.806230 9.272477 -3.634956 0
M  V30 4 C 12.577072 6.926681 -2.289128 0
M  V30 5 C 12.110036 6.848471 -3.603245 0
M  V30 6 C 11.316010 7.961779 -10.311689 0
M  V30 7 C 7.938313 4.764329 -13.987899 0
M  V30 8 N 6.767885 4.539465 -12.021599 0 CFG=2 CHG=1
M  V30 9 C 11.519913 8.820275 -9.049131 0
M  V30 10 C 11.124813 8.910201 -6.521258 0
M  V30 11 O 11.434838 10.078266 -6.291675 0
M  V30 12 C 12.634839 8.169305 -1.637823 0
M  V30 13 N 12.979551 5.769306 -1.626405 0
M  V30 14 C 6.503724 4.684494 -14.443850 0
M  V30 15 N 11.252436 7.896805 -5.662204 0
M  V30 16 C 9.888447 7.957503 -10.905517 0
M  V30 17 O 7.829089 7.305117 -12.691667 0
M  V30 18 C 10.291452 6.974852 -7.575150 0
M  V30 19 C 5.776783 4.811349 -13.100411 0
M  V30 20 N 9.493086 6.618198 -11.318992 0
M  V30 21 C 6.340823 5.023314 -10.685311 0
M  V30 22 C 10.560897 8.491007 -7.869881 0 CFG=2
M  V30 23 C 10.915976 6.601854 -6.207356 0
M  V30 24 C 11.736849 8.017220 -4.297190 0
M  V30 25 C 8.481359 6.394714 -12.174522 0
M  V30 26 C 12.231521 9.334359 -2.305129 0
M  V30 27 O 8.878854 4.712465 -14.777935 0
M  V30 28 H 10.201683 4.165327 -12.291640 0
M  V30 29 H 9.201585 3.838285 -10.878622 0
M  V30 30 H 9.003169 2.889890 -12.340068 0
M  V30 31 H 11.495482 10.175022 -4.116994 0
M  V30 32 H 12.054042 5.887367 -4.089337 0
M  V30 33 H 12.043063 8.209809 -11.082927 0
M  V30 34 H 11.626873 6.969302 -10.048087 0
M  V30 35 H 11.434825 9.874461 -9.312181 0
M  V30 36 H 12.554346 8.691079 -8.725365 0
M  V30 37 H 12.984891 8.227876 -0.623773 0
M  V30 38 H 13.127456 5.789728 -0.626839 0
M  V30 39 H 12.746423 4.865787 -2.015205 0
M  V30 40 H 6.249838 5.485091 -15.138923 0
M  V30 41 H 6.323744 3.718502 -14.915483 0
M  V30 42 H 9.148643 8.319986 -10.191828 0
M  V30 43 H 9.834837 8.615923 -11.769748 0
M  V30 44 H 9.211349 6.820769 -7.524521 0
M  V30 45 H 10.644197 6.285200 -8.336210 0
M  V30 46 H 5.389776 5.826930 -12.997324 0
M  V30 47 H 4.930735 4.126798 -13.029670 0
M  V30 48 H 9.989099 5.834126 -10.923863 0
M  V30 49 H 6.122931 6.092505 -10.691695 0
M  V30 50 H 5.434031 4.505129 -10.373027 0
M  V30 51 H 7.103941 4.832557 -9.929959 0
M  V30 52 H 9.594953 8.969312 -8.024271 0
M  V30 53 H 11.811391 5.993023 -6.341334 0
M  V30 54 H 10.203184 6.073756 -5.573481 0
M  V30 55 H 12.234840 10.281316 -1.792103 0
M  V30 56 H 6.800696 3.532522 -11.952027 0
M  V30 END ATOM
M  V30 BEGIN BOND
M  V30 1 1 2 1 CFG=1
M  V30 2 2 5 4
M  V30 3 1 7 2
M  V30 4 1 8 2
M  V30 5 1 9 6
M  V30 6 2 11 10
M  V30 7 1 12 4
M  V30 8 1 13 4
M  V30 9 1 14 7
M  V30 10 1 15 10
M  V30 11 1 16 6
M  V30 12 1 19 8
M  V30 13 1 19 14
M  V30 14 1 20 16
M  V30 15 1 21 8
M  V30 16 1 22 9
M  V30 17 1 22 10
M  V30 18 1 22 18
M  V30 19 1 23 15
M  V30 20 1 23 18
M  V30 21 2 24 3
M  V30 22 1 24 5
M  V30 23 1 24 15
M  V30 24 1 25 2
M  V30 25 2 25 17
M  V30 26 1 25 20
M  V30 27 1 26 3
M  V30 28 2 26 12
M  V30 29 2 27 7
M  V30 30 1 28 1
M  V30 31 1 29 1
M  V30 32 1 30 1
M  V30 33 1 31 3
M  V30 34 1 32 5
M  V30 35 1 33 6
M  V30 36 1 34 6
M  V30 37 1 35 9
M  V30 38 1 36 9
M  V30 39 1 37 12
M  V30 40 1 38 13
M  V30 41 1 39 13
M  V30 42 1 40 14
M  V30 43 1 41 14
M  V30 44 1 42 16
M  V30 45 1 43 16
M  V30 46 1 44 18
M  V30 47 1 45 18
M  V30 48 1 46 19
M  V30 49 1 47 19
M  V30 50 1 48 20
M  V30 51 1 49 21
M  V30 52 1 50 21
M  V30 53 1 51 21
M  V30 54 1 22 52 CFG=3
M  V30 55 1 53 23
M  V30 56 1 54 23
M  V30 57 1 55 26
M  V30 58 1 8 56 CFG=1
M  V30 END BOND
M  V30 END CTAB
M  END
>  <i_epik_Tot_Q>  (1) 
1

>  <i_epik_Tot_abs_Q>  (1) 
1

>  <i_i_glide_confnum>  (1) 
217

>  <i_i_glide_lignum>  (1) 
80

>  <i_i_glide_posenum>  (1) 
78

>  <i_i_glide_rotatable_bonds>  (1) 
7

>  <i_lp_mmshare_version>  (1) 
72125

>  <i_m_source_file_index>  (1) 
45

>  <i_f3d_flags>  (1) 
0

>  <num_sample>  (1) 
100

>  <b_lp_Chiralities_Consistent>  (1) 
1

>  <r_epik_Charging_Adjusted_Penalty>  (1) 
0.87787264938008924

>  <r_epik_Ionization_Penalty>  (1) 
0.44040452980928141

>  <r_epik_Ionization_Penalty_Charging>  (1) 
0.43893632469004462

>  <r_epik_Ionization_Penalty_Neutral>  (1) 
0.0014682051192367804

>  <r_epik_State_Penalty>  (1) 
0.43893632469004457

>  <r_glide_ring_energy>  (1) 
0

>  <r_i_docking_score>  (1) 
-6.0976562523003066

>  <r_i_glide_ecoul>  (1) 
-4.8017724184086461

>  <r_i_glide_eff_state_penalty>  (1) 
0.43893632469004457

>  <r_i_glide_einternal>  (1) 
11.990205488948355

>  <r_i_glide_emodel>  (1) 
-48.644642239403012

>  <r_i_glide_emodel_strain>  (1) 
0.96178639212513417

>  <r_i_glide_energy>  (1) 
-37.267189018281044

>  <r_i_glide_erotb>  (1) 
0.96983297192060391

>  <r_i_glide_esite>  (1) 
-0.088252207431505525

>  <r_i_glide_evdw>  (1) 
-32.465416599872398

>  <r_i_glide_gscore>  (1) 
-6.5365925769903512

>  <r_i_glide_gscore_strain>  (1) 
0

>  <r_i_glide_hbond>  (1) 
0

>  <r_i_glide_ligand_efficiency>  (1) 
-0.22583912045556692

>  <r_i_glide_ligand_efficiency_ln>  (1) 
-1.419433847815524

>  <r_i_glide_ligand_efficiency_sa>  (1) 
-0.67751736136670082

>  <r_i_glide_lipo>  (1) 
-2.7719041398689477

>  <r_i_glide_metal>  (1) 
-0

>  <r_i_glide_rewards>  (1) 
-2.3027325088555846

>  <r_lp_Energy>  (1) 
34.499494999999996

>  <r_lp_tautomer_probability>  (1) 
0.99995000000000001

>  <s_epik_cmdline>  (1) 
J2VwaWtfcHl0aG9uJywgJy1waHQnLCAnMS4wJywgJy1waCcsICc3LjQnLCAnLXRuJywgJzgnLCAnLW1hJywgJzUwMCcsICctaW1hZScsICc8aW5maWxlLm1hZT4nLCAnLW9tYWUnLCAnPG91dGZpbGUubWFlPic=

>  <s_epik_input>  (1) 
W0NIM11OMVtDSDJdW0NIMl1DKD1PKVtDQEBdMShbQ0gzXSlDKD1PKVtOSF1bQ0gyXVtDSDJdW0NIMl1bQ0BASF0yW0NIMl1bQ0gyXU4oQzI9TyljKFtjSF1bY0hdW2NIXTMpW2NIXWMzW05IMl0=

>  <s_glide_docking_method>  (1) 
confgen

>  <s_i_glide_gridfile>  (1) 
gpcr_drd2_6luq_protein_autoprepared_prepared

>  <s_lp_Force_Field>  (1) 
S-OPLS

>  <s_lp_Variant>  (1) 
DiffSBDD_44_num_sample_100-5

>  <s_m_source_file>  (1) 
generated__ligand_DiffSBDD_2026-05-06_prepared.sdf

>  <GenAI_Model>  (1) 
DiffSBDD

>  <Protein>  (1) 
generic_title2

$$$$
DiffSBDD_31_num_sample_100
     RDKit          3D

  0  0  0  0  0  0  0  0  0  0999 V3000
M  V30 BEGIN CTAB
M  V30 COUNTS 50 53 0 0 1
M  V30 BEGIN ATOM
M  V30 1 C 9.561102 6.965107 -11.884570 0
M  V30 2 C 9.960054 7.016723 -9.383440 0
M  V30 3 C 10.685785 7.631209 -7.167317 0
M  V30 4 O 12.633691 7.597465 -1.882254 0
M  V30 5 C 7.661260 2.368978 -14.580074 0
M  V30 6 C 7.341927 3.335174 -13.420922 0 CFG=1
M  V30 7 C 11.834826 8.765737 -5.275207 0
M  V30 8 N 9.536822 6.379218 -10.546368 0
M  V30 9 C 11.142706 7.651820 -5.778593 0
M  V30 10 O 13.034840 9.769318 -3.492068 0
M  V30 11 S 9.821182 6.242452 -7.813110 0
M  V30 12 C 12.339057 8.734861 -3.960981 0
M  V30 13 C 8.132468 7.097562 -12.443626 0
M  V30 14 C 7.868043 4.780835 -13.599244 0 CFG=1
M  V30 15 C 8.021740 4.437623 -16.142243 0 CFG=2
M  V30 16 N 10.914183 8.586569 -8.070095 0
M  V30 17 Cl 9.790614 4.621835 -16.289753 0
M  V30 18 C 8.956129 5.042760 -10.603151 0
M  V30 19 C 7.473259 5.306628 -14.999688 0
M  V30 20 N 10.502463 8.237309 -9.344016 0
M  V30 21 C 12.141595 7.617389 -3.149348 0
M  V30 22 C 10.930127 6.541425 -4.948348 0
M  V30 23 C 11.434826 6.525842 -3.636986 0
M  V30 24 C 7.389390 5.741520 -12.459835 0
M  V30 25 C 7.631325 2.955738 -16.006939 0
M  V30 26 C 7.494426 5.138767 -11.037366 0
M  V30 27 Cl 5.593998 3.369324 -13.091675 0
M  V30 28 H 10.027466 7.950037 -11.860344 0
M  V30 29 H 10.181231 6.351786 -12.539541 0
M  V30 30 H 12.661099 8.448906 -1.475836 0
M  V30 31 H 6.992229 1.508767 -14.530982 0
M  V30 32 H 8.634760 1.936972 -14.400107 0
M  V30 33 H 7.794574 2.895699 -12.532711 0
M  V30 34 H 12.009609 9.628737 -5.902297 0
M  V30 35 H 13.434828 9.654420 -2.642534 0
M  V30 36 H 7.577754 7.796364 -11.815691 0
M  V30 37 H 8.155815 7.562230 -13.426267 0
M  V30 38 H 8.955168 4.722221 -13.563415 0
M  V30 39 H 7.619443 4.811206 -17.085796 0
M  V30 40 H 9.527475 4.419019 -11.291526 0
M  V30 41 H 9.008900 4.543753 -9.638316 0
M  V30 42 H 6.385862 5.349071 -15.074666 0
M  V30 43 H 7.823668 6.325087 -15.153180 0
M  V30 44 H 10.393841 5.696237 -5.316163 0
M  V30 45 H 11.275020 5.669591 -3.006852 0
M  V30 46 H 6.336053 5.964351 -12.634891 0
M  V30 47 H 6.634865 2.832328 -16.401626 0
M  V30 48 H 8.251124 2.346828 -16.666170 0
M  V30 49 H 6.958879 5.769319 -10.328182 0
M  V30 50 H 7.009156 4.172217 -10.937297 0
M  V30 END ATOM
M  V30 BEGIN BOND
M  V30 1 1 6 5
M  V30 2 1 8 1
M  V30 3 1 8 2
M  V30 4 1 9 3
M  V30 5 2 9 7
M  V30 6 1 11 2
M  V30 7 1 11 3
M  V30 8 1 12 7
M  V30 9 1 12 10
M  V30 10 1 13 1
M  V30 11 1 14 6
M  V30 12 2 16 3
M  V30 13 1 17 15
M  V30 14 1 18 8
M  V30 15 1 19 14
M  V30 16 1 19 15
M  V30 17 2 20 2
M  V30 18 1 20 16
M  V30 19 1 21 4
M  V30 20 2 21 12
M  V30 21 1 22 9
M  V30 22 1 23 21
M  V30 23 2 23 22
M  V30 24 1 24 13
M  V30 25 1 24 14
M  V30 26 1 25 5
M  V30 27 1 25 15
M  V30 28 1 26 18
M  V30 29 1 26 24
M  V30 30 1 27 6
M  V30 31 1 28 1
M  V30 32 1 29 1
M  V30 33 1 30 4
M  V30 34 1 31 5
M  V30 35 1 32 5
M  V30 36 1 6 33 CFG=1
M  V30 37 1 34 7
M  V30 38 1 35 10
M  V30 39 1 36 13
M  V30 40 1 37 13
M  V30 41 1 14 38 CFG=3
M  V30 42 1 15 39 CFG=3
M  V30 43 1 40 18
M  V30 44 1 41 18
M  V30 45 1 42 19
M  V30 46 1 43 19
M  V30 47 1 44 22
M  V30 48 1 45 23
M  V30 49 1 46 24
M  V30 50 1 47 25
M  V30 51 1 48 25
M  V30 52 1 49 26
M  V30 53 1 50 26
M  V30 END BOND
M  V30 END CTAB
M  END
>  <i_epik_Tot_Q>  (1) 
0

>  <i_epik_Tot_abs_Q>  (1) 
0

>  <i_i_glide_confnum>  (1) 
40

>  <i_i_glide_lignum>  (1) 
56

>  <i_i_glide_posenum>  (1) 
367

>  <i_i_glide_rotatable_bonds>  (1) 
5

>  <i_lp_mmshare_version>  (1) 
72125

>  <i_m_source_file_index>  (1) 
32

>  <i_f3d_flags>  (1) 
0

>  <num_sample>  (1) 
100

>  <b_lp_Chiralities_Consistent>  (1) 
1

>  <r_epik_Charging_Adjusted_Penalty>  (1) 
0.030402742638392096

>  <r_epik_Ionization_Penalty>  (1) 
0.030794834145842404

>  <r_epik_Ionization_Penalty_Charging>  (1) 
0

>  <r_epik_Ionization_Penalty_Neutral>  (1) 
0.030794834145842404

>  <r_epik_State_Penalty>  (1) 
0.030402742638392096

>  <r_glide_ring_energy>  (1) 
1.8967887167309052

>  <r_i_docking_score>  (1) 
-6.0819248150682652

>  <r_i_glide_ecoul>  (1) 
-4.7448515224863952

>  <r_i_glide_eff_state_penalty>  (1) 
0.030402742638392096

>  <r_i_glide_einternal>  (1) 
10.045724954946406

>  <r_i_glide_emodel>  (1) 
-43.280653338530946

>  <r_i_glide_emodel_strain>  (1) 
1.635572775040437

>  <r_i_glide_energy>  (1) 
-39.837462160366528

>  <r_i_glide_erotb>  (1) 
0.32471647886420552

>  <r_i_glide_esite>  (1) 
-0.094352355582414227

>  <r_i_glide_evdw>  (1) 
-35.092610637880135

>  <r_i_glide_gscore>  (1) 
-6.1123275577066574

>  <r_i_glide_gscore_strain>  (1) 
0

>  <r_i_glide_hbond>  (1) 
-0.16479188951254733

>  <r_i_glide_ligand_efficiency>  (1) 
-0.22525647463215798

>  <r_i_glide_ligand_efficiency_ln>  (1) 
-1.4157718285809171

>  <r_i_glide_ligand_efficiency_sa>  (1) 
-0.6757694238964741

>  <r_i_glide_lipo>  (1) 
-2.4338055807129417

>  <r_i_glide_metal>  (1) 
-0

>  <r_i_glide_rewards>  (1) 
-1.2777359504959938

>  <r_lp_Energy>  (1) 
30.5136

>  <r_lp_tautomer_probability>  (1) 
0.99999999999977596

>  <s_epik_cmdline>  (1) 
J2VwaWtfcHl0aG9uJywgJy1waHQnLCAnMS4wJywgJy1waCcsICc3LjQnLCAnLXRuJywgJzgnLCAnLW1hJywgJzUwMCcsICctaW1hZScsICc8aW5maWxlLm1hZT4nLCAnLW9tYWUnLCAnPG91dGZpbGUubWFlPic=

>  <s_epik_input>  (1) 
Q2xbQ0BIXTFbQ0gyXVtDSDJdW0NASF0oQ2wpW0NIMl1bQ0BIXTFbQ0hdKFtDSDJdW0NIMl0yKVtDSDJdW0NIMl1OMmMzc2Mobm4zKS1jNFtjSF1jKFtPSF0pYyhbT0hdKVtjSF1bY0hdNA==

>  <s_glide_docking_method>  (1) 
confgen

>  <s_i_glide_gridfile>  (1) 
gpcr_drd2_6luq_protein_autoprepared_prepared

>  <s_lp_Force_Field>  (1) 
S-OPLS

>  <s_lp_Variant>  (1) 
DiffSBDD_31_num_sample_100-1

>  <s_m_source_file>  (1) 
generated__ligand_DiffSBDD_2026-05-06_prepared.sdf

>  <GenAI_Model>  (1) 
DiffSBDD

>  <Protein>  (1) 
generic_title2

$$$$
DiffSBDD_48_num_sample_100
     RDKit          3D

  0  0  0  0  0  0  0  0  0  0999 V3000
M  V30 BEGIN CTAB
M  V30 COUNTS 51 53 0 0 1
M  V30 BEGIN ATOM
M  V30 1 O 12.634832 7.302370 -2.103788 0
M  V30 2 O 5.434857 4.169327 -12.732696 0
M  V30 3 C 10.371904 6.409257 -6.414103 0
M  V30 4 C 6.674954 4.061815 -13.395962 0
M  V30 5 C 7.432558 6.369657 -12.477238 0
M  V30 6 N 10.380318 7.439485 -7.541159 0
M  V30 7 C 7.258906 5.456362 -13.717430 0 CFG=2
M  V30 8 N 9.434851 7.301304 -8.562473 0
M  V30 9 C 11.741035 9.514812 -4.951413 0
M  V30 10 C 6.428923 6.162188 -14.804823 0
M  V30 11 C 9.405238 6.766608 -10.991491 0
M  V30 12 C 13.034844 8.280575 -1.157571 0
M  V30 13 C 7.829124 5.130997 -10.331051 0
M  V30 14 C 12.148283 7.735173 -3.314357 0
M  V30 15 C 11.140816 8.562210 -5.781379 0
M  V30 16 C 12.251015 9.104982 -3.704209 0
M  V30 17 C 9.002530 5.006146 -9.363396 0
M  V30 18 C 9.772152 6.313022 -9.567438 0 CFG=2
M  V30 19 O 8.540680 5.238254 -14.274426 0
M  V30 20 N 8.405382 5.806520 -11.508172 0 CFG=1 CHG=1
M  V30 21 C 11.034782 7.272003 -5.419074 0
M  V30 22 C 11.527337 6.811176 -4.189479 0
M  V30 23 C 10.585945 8.871861 -7.100108 0
M  V30 24 H 4.795868 4.504197 -13.343426 0
M  V30 25 H 9.353770 6.168876 -6.106783 0
M  V30 26 H 10.944738 5.523882 -6.688945 0
M  V30 27 H 7.355888 3.482396 -12.772754 0
M  V30 28 H 6.534891 3.481132 -14.308836 0
M  V30 29 H 7.792125 7.340568 -12.822397 0
M  V30 30 H 6.476186 6.571146 -11.990703 0
M  V30 31 H 8.484803 7.192790 -8.200707 0
M  V30 32 H 11.813560 10.546579 -5.262177 0
M  V30 33 H 5.421125 6.381486 -14.453751 0
M  V30 34 H 6.878626 7.110866 -15.100569 0
M  V30 35 H 6.340951 5.547783 -15.701880 0
M  V30 36 H 10.277257 6.781293 -11.646156 0
M  V30 37 H 8.996166 7.778563 -10.967620 0
M  V30 38 H 13.434833 7.769318 -0.291310 0
M  V30 39 H 13.834838 8.918958 -1.525523 0
M  V30 40 H 12.192398 8.897417 -0.840887 0
M  V30 41 H 7.059280 5.768160 -9.891642 0
M  V30 42 H 7.376299 4.169502 -10.567599 0
M  V30 43 H 12.715493 9.828312 -3.057083 0
M  V30 44 H 8.679867 4.842638 -8.334045 0
M  V30 45 H 9.637320 4.169285 -9.652572 0
M  V30 46 H 10.846250 6.169331 -9.491732 0
M  V30 47 H 8.802558 6.004492 -14.763227 0
M  V30 48 H 11.434816 5.769814 -3.914990 0
M  V30 49 H 11.282059 9.378179 -7.765609 0
M  V30 50 H 9.622315 9.369283 -7.021507 0
M  V30 51 H 8.930199 5.111659 -12.023166 0
M  V30 END ATOM
M  V30 BEGIN BOND
M  V30 1 1 4 2
M  V30 2 1 6 3
M  V30 3 1 7 4
M  V30 4 1 7 5
M  V30 5 1 8 6
M  V30 6 1 10 7
M  V30 7 1 12 1
M  V30 8 1 14 1
M  V30 9 1 15 9
M  V30 10 2 16 9
M  V30 11 1 16 14
M  V30 12 1 17 13
M  V30 13 1 18 8
M  V30 14 1 18 11
M  V30 15 1 18 17
M  V30 16 1 7 19 CFG=3
M  V30 17 1 20 5
M  V30 18 1 20 11
M  V30 19 1 20 13
M  V30 20 1 21 3
M  V30 21 2 21 15
M  V30 22 2 22 14
M  V30 23 1 22 21
M  V30 24 1 23 6
M  V30 25 1 23 15
M  V30 26 1 24 2
M  V30 27 1 25 3
M  V30 28 1 26 3
M  V30 29 1 27 4
M  V30 30 1 28 4
M  V30 31 1 29 5
M  V30 32 1 30 5
M  V30 33 1 31 8
M  V30 34 1 32 9
M  V30 35 1 33 10
M  V30 36 1 34 10
M  V30 37 1 35 10
M  V30 38 1 36 11
M  V30 39 1 37 11
M  V30 40 1 38 12
M  V30 41 1 39 12
M  V30 42 1 40 12
M  V30 43 1 41 13
M  V30 44 1 42 13
M  V30 45 1 43 16
M  V30 46 1 44 17
M  V30 47 1 45 17
M  V30 48 1 18 46 CFG=3
M  V30 49 1 47 19
M  V30 50 1 48 22
M  V30 51 1 49 23
M  V30 52 1 50 23
M  V30 53 1 20 51 CFG=3
M  V30 END BOND
M  V30 END CTAB
M  END
>  <i_epik_Tot_Q>  (1) 
1

>  <i_epik_Tot_abs_Q>  (1) 
1

>  <i_i_glide_confnum>  (1) 
172

>  <i_i_glide_lignum>  (1) 
89

>  <i_i_glide_posenum>  (1) 
347

>  <i_i_glide_rotatable_bonds>  (1) 
8

>  <i_lp_mmshare_version>  (1) 
72125

>  <i_m_source_file_index>  (1) 
49

>  <i_f3d_flags>  (1) 
0

>  <num_sample>  (1) 
100

>  <b_lp_Chiralities_Consistent>  (1) 
1

>  <r_epik_Charging_Adjusted_Penalty>  (1) 
0.014070542232369893

>  <r_epik_Ionization_Penalty>  (1) 
0.01444304470814459

>  <r_epik_Ionization_Penalty_Charging>  (1) 
0.014070542232369893

>  <r_epik_Ionization_Penalty_Neutral>  (1) 
0.00037250247577469821

>  <r_epik_State_Penalty>  (1) 
-0

>  <r_glide_ring_energy>  (1) 
0.0027901821581941132

>  <r_i_docking_score>  (1) 
-6.0813575154494206

>  <r_i_glide_ecoul>  (1) 
-3.6531574961929936

>  <r_i_glide_eff_state_penalty>  (1) 
-0

>  <r_i_glide_einternal>  (1) 
4.1611673446680051

>  <r_i_glide_emodel>  (1) 
-55.106358214672909

>  <r_i_glide_emodel_strain>  (1) 
0.16571468239568787

>  <r_i_glide_energy>  (1) 
-37.216017206825576

>  <r_i_glide_erotb>  (1) 
0.89938055447957976

>  <r_i_glide_esite>  (1) 
-0.15709497129490213

>  <r_i_glide_evdw>  (1) 
-33.56285971063258

>  <r_i_glide_gscore>  (1) 
-6.0813575154494206

>  <r_i_glide_gscore_strain>  (1) 
0

>  <r_i_glide_hbond>  (1) 
-0.07368352406122701

>  <r_i_glide_ligand_efficiency>  (1) 
-0.26440684849780088

>  <r_i_glide_ligand_efficiency_ln>  (1) 
-1.4705273899368956

>  <r_i_glide_ligand_efficiency_sa>  (1) 
-0.75193790568951147

>  <r_i_glide_lipo>  (1) 
-2.6157430170719427

>  <r_i_glide_metal>  (1) 
-0

>  <r_i_glide_rewards>  (1) 
-1.9080999475403513

>  <r_lp_Energy>  (1) 
33.837268999999999

>  <r_lp_tautomer_probability>  (1) 
1

>  <s_epik_cmdline>  (1) 
J2VwaWtfcHl0aG9uJywgJy1waHQnLCAnMS4wJywgJy1waCcsICc3LjQnLCAnLXRuJywgJzgnLCAnLW1hJywgJzUwMCcsICctaW1hZScsICc8aW5maWxlLm1hZT4nLCAnLW9tYWUnLCAnPG91dGZpbGUubWFlPic=

>  <s_epik_input>  (1) 
W2NIXTFbY0hdYyhPW0NIM10pW2NIXWMoYzEyKVtDSDJdTihbQ0gyXTIpW05IXVtDQEBIXTNbQ0gyXU4oW0NIMl1bQ0gyXTMpW0NIMl1bQ0BAXShbQ0gzXSkoW09IXSlbQ0gyXVtPSF0=

>  <s_glide_docking_method>  (1) 
confgen

>  <s_i_glide_gridfile>  (1) 
gpcr_drd2_6luq_protein_autoprepared_prepared

>  <s_lp_Force_Field>  (1) 
S-OPLS

>  <s_lp_Variant>  (1) 
DiffSBDD_48_num_sample_100-1

>  <s_m_source_file>  (1) 
generated__ligand_DiffSBDD_2026-05-06_prepared.sdf

>  <GenAI_Model>  (1) 
DiffSBDD

>  <Protein>  (1) 
generic_title2

$$$$
DiffSBDD_55_num_sample_100
     RDKit          3D

  0  0  0  0  0  0  0  0  0  0999 V3000
M  V30 BEGIN CTAB
M  V30 COUNTS 51 54 0 0 1
M  V30 BEGIN ATOM
M  V30 1 O 6.759304 5.025318 -13.972576 0
M  V30 2 C 12.173400 8.968580 -3.822399 0
M  V30 3 C 8.737387 5.190796 -10.232818 0
M  V30 4 C 8.988608 5.652546 -7.473854 0
M  V30 5 C 9.058637 7.353774 -12.107302 0 CFG=2
M  V30 6 C 7.840955 6.465138 -12.339510 0 CFG=1
M  V30 7 S 11.034855 6.732081 -4.831100 0
M  V30 8 C 12.050778 7.475183 -3.525554 0
M  V30 9 C 11.991310 9.153393 -5.323678 0
M  V30 10 C 5.621405 7.022434 -14.486999 0
M  V30 11 N 9.047630 6.569257 -9.748201 0 CFG=1 CHG=1
M  V30 12 C 7.691896 6.091701 -13.831366 0 CFG=2
M  V30 13 C 7.817821 5.190252 -11.458043 0 CFG=2
M  V30 14 C 7.088927 7.196530 -14.691690 0
M  V30 15 C 5.523020 5.509735 -14.469260 0
M  V30 16 C 10.135498 8.610259 -6.812885 0
M  V30 17 C 9.680607 6.650482 -8.392336 0 CFG=1
M  V30 18 C 11.335081 8.002571 -6.090953 0 CFG=2
M  V30 19 C 10.454466 6.800519 -11.931385 0
M  V30 20 O 12.359700 10.172114 -5.891787 0
M  V30 21 O 6.486239 4.965367 -11.023056 0
M  V30 22 C 9.436953 8.036702 -7.810968 0
M  V30 23 C 9.721849 7.441134 -10.755748 0 CFG=1
M  V30 24 H 11.393637 9.530592 -3.308943 0
M  V30 25 H 13.134545 9.363937 -3.494725 0
M  V30 26 H 8.229733 4.569264 -9.499792 0
M  V30 27 H 9.664353 4.654108 -10.432512 0
M  V30 28 H 9.175756 5.833656 -6.424132 0
M  V30 29 H 7.902301 5.691882 -7.574132 0
M  V30 30 H 9.320268 4.633482 -7.666293 0
M  V30 31 H 9.002428 8.295690 -12.648793 0
M  V30 32 H 6.990735 7.080244 -12.041147 0
M  V30 33 H 11.599736 7.294360 -2.549240 0
M  V30 34 H 13.034481 7.009412 -3.510966 0
M  V30 35 H 5.034753 7.485124 -15.280524 0
M  V30 36 H 5.305070 7.440124 -13.531139 0
M  V30 37 H 8.655302 5.768389 -14.228642 0
M  V30 38 H 8.104281 4.318207 -12.048062 0
M  V30 39 H 7.435144 8.201982 -14.459696 0
M  V30 40 H 7.309635 6.969368 -15.732308 0
M  V30 41 H 5.434949 5.152367 -15.491733 0
M  V30 42 H 4.675767 5.141080 -13.891574 0
M  V30 43 H 9.838723 9.589720 -6.490004 0
M  V30 44 H 10.748699 6.434902 -8.446164 0
M  V30 45 H 12.040075 7.615984 -6.825917 0
M  V30 46 H 11.262305 7.369168 -12.384642 0
M  V30 47 H 10.579432 5.725580 -12.022120 0
M  V30 48 H 6.204243 5.696334 -10.489833 0
M  V30 49 H 8.634841 8.590598 -8.243135 0
M  V30 50 H 10.005678 8.430538 -10.401982 0
M  V30 51 H 8.126545 7.016997 -9.604259 0
M  V30 END ATOM
M  V30 BEGIN BOND
M  V30 1 1 6 5
M  V30 2 1 8 2
M  V30 3 1 8 7
M  V30 4 1 9 2
M  V30 5 1 11 3
M  V30 6 1 12 1
M  V30 7 1 12 6
M  V30 8 1 13 3
M  V30 9 1 13 6
M  V30 10 1 14 10
M  V30 11 1 14 12
M  V30 12 1 15 1
M  V30 13 1 15 10
M  V30 14 1 17 4
M  V30 15 1 17 11
M  V30 16 1 18 7
M  V30 17 1 18 9
M  V30 18 1 18 16
M  V30 19 1 19 5
M  V30 20 2 20 9
M  V30 21 1 21 13
M  V30 22 2 22 16
M  V30 23 1 22 17
M  V30 24 1 23 5
M  V30 25 1 23 11
M  V30 26 1 23 19
M  V30 27 1 24 2
M  V30 28 1 25 2
M  V30 29 1 26 3
M  V30 30 1 27 3
M  V30 31 1 28 4
M  V30 32 1 29 4
M  V30 33 1 30 4
M  V30 34 1 5 31 CFG=3
M  V30 35 1 6 32 CFG=1
M  V30 36 1 33 8
M  V30 37 1 34 8
M  V30 38 1 35 10
M  V30 39 1 36 10
M  V30 40 1 12 37 CFG=3
M  V30 41 1 13 38 CFG=3
M  V30 42 1 39 14
M  V30 43 1 40 14
M  V30 44 1 41 15
M  V30 45 1 42 15
M  V30 46 1 43 16
M  V30 47 1 17 44 CFG=3
M  V30 48 1 18 45 CFG=3
M  V30 49 1 46 19
M  V30 50 1 47 19
M  V30 51 1 48 21
M  V30 52 1 49 22
M  V30 53 1 23 50 CFG=1
M  V30 54 1 11 51 CFG=1
M  V30 END BOND
M  V30 END CTAB
M  END
>  <i_epik_Tot_Q>  (1) 
1

>  <i_epik_Tot_abs_Q>  (1) 
1

>  <i_i_glide_confnum>  (1) 
85

>  <i_i_glide_lignum>  (1) 
107

>  <i_i_glide_posenum>  (1) 
207

>  <i_i_glide_rotatable_bonds>  (1) 
5

>  <i_lp_mmshare_version>  (1) 
72125

>  <i_m_source_file_index>  (1) 
56

>  <i_f3d_flags>  (1) 
0

>  <num_sample>  (1) 
100

>  <b_lp_Chiralities_Consistent>  (1) 
1

>  <r_epik_Charging_Adjusted_Penalty>  (1) 
0.1887110856522376

>  <r_epik_Ionization_Penalty>  (1) 
0.094355642401006162

>  <r_epik_Ionization_Penalty_Charging>  (1) 
0.094355542826118813

>  <r_epik_Ionization_Penalty_Neutral>  (1) 
9.9574887353862298e-08

>  <r_epik_State_Penalty>  (1) 
0.094355542826118799

>  <r_glide_ring_energy>  (1) 
1.1829721722469742

>  <r_i_docking_score>  (1) 
-6.0793124803166121

>  <r_i_glide_ecoul>  (1) 
-7.3273309339996917

>  <r_i_glide_eff_state_penalty>  (1) 
0.094355542826118799

>  <r_i_glide_einternal>  (1) 
6.8450331095939694

>  <r_i_glide_emodel>  (1) 
-43.613417134326447

>  <r_i_glide_emodel_strain>  (1) 
2.9933031671363182

>  <r_i_glide_energy>  (1) 
-35.140768740334394

>  <r_i_glide_erotb>  (1) 
0.49519417565235591

>  <r_i_glide_esite>  (1) 
-0.10000000000000001

>  <r_i_glide_evdw>  (1) 
-27.813437806334701

>  <r_i_glide_gscore>  (1) 
-6.1736680231427306

>  <r_i_glide_gscore_strain>  (1) 
0

>  <r_i_glide_hbond>  (1) 
-0.16801969749167139

>  <r_i_glide_ligand_efficiency>  (1) 
-0.26431793392680925

>  <r_i_glide_ligand_efficiency_ln>  (1) 
-1.470032881898429

>  <r_i_glide_ligand_efficiency_sa>  (1) 
-0.75168504447704065

>  <r_i_glide_lipo>  (1) 
-1.8688240103718428

>  <r_i_glide_metal>  (1) 
-0

>  <r_i_glide_rewards>  (1) 
-2.0422469605148823

>  <r_lp_Energy>  (1) 
19.031651

>  <r_lp_tautomer_probability>  (1) 
0.99995000000000001

>  <s_epik_cmdline>  (1) 
J2VwaWtfcHl0aG9uJywgJy1waHQnLCAnMS4wJywgJy1waCcsICc3LjQnLCAnLXRuJywgJzgnLCAnLW1hJywgJzUwMCcsICctaW1hZScsICc8aW5maWxlLm1hZT4nLCAnLW9tYWUnLCAnPG91dGZpbGUubWFlPic=

>  <s_epik_input>  (1) 
W0NIMl0xW0NIMl1bQ0gyXU9bQ0BASF0xW0NASF0yW0NASF0oW09IXSlbQ0gyXU4oW0NASF0oW0NASF0yMylbQ0gyXTMpW0NASF0oW0NIM10pL1tDSF09W0NIXVxbQ0BASF00U1tDSDJdW0NIMl1DND1P

>  <s_glide_docking_method>  (1) 
confgen

>  <s_i_glide_gridfile>  (1) 
gpcr_drd2_6luq_protein_autoprepared_prepared

>  <s_lp_Force_Field>  (1) 
S-OPLS

>  <s_lp_Variant>  (1) 
DiffSBDD_55_num_sample_100-8

>  <s_m_source_file>  (1) 
generated__ligand_DiffSBDD_2026-05-06_prepared.sdf

>  <GenAI_Model>  (1) 
DiffSBDD

>  <Protein>  (1) 
generic_title2

$$$$
DiffSBDD_55_num_sample_100
     RDKit          3D

  0  0  0  0  0  0  0  0  0  0999 V3000
M  V30 BEGIN CTAB
M  V30 COUNTS 51 54 0 0 1
M  V30 BEGIN ATOM
M  V30 1 O 6.234919 1.865444 -12.571075 0
M  V30 2 C 9.525962 8.217775 -6.353469 0
M  V30 3 C 8.131995 5.293630 -11.129579 0
M  V30 4 C 10.857495 6.569377 -12.403031 0
M  V30 5 C 7.057320 5.328857 -13.797821 0 CFG=2
M  V30 6 C 6.524898 4.277365 -12.832634 0 CFG=1
M  V30 7 S 11.834839 8.969469 -7.506747 0
M  V30 8 C 10.813025 8.977090 -6.015453 0
M  V30 9 C 9.966949 7.113202 -7.274020 0
M  V30 10 C 6.903591 0.945102 -14.571048 0
M  V30 11 N 8.361577 6.545084 -11.911486 0 CFG=1 CHG=1
M  V30 12 C 7.104160 2.859153 -13.093718 0 CFG=2
M  V30 13 C 6.712735 4.744799 -11.375575 0 CFG=2
M  V30 14 C 7.236662 2.431461 -14.564533 0
M  V30 15 C 6.643549 0.616819 -13.105245 0
M  V30 16 C 11.063222 7.239166 -9.551902 0
M  V30 17 C 9.669263 7.254700 -11.687291 0 CFG=1
M  V30 18 C 11.244294 7.367649 -8.050830 0 CFG=1
M  V30 19 C 8.528561 5.368684 -14.163384 0
M  V30 20 O 9.329835 6.068312 -7.391059 0
M  V30 21 O 5.771280 5.769397 -11.092263 0
M  V30 22 C 9.892079 7.434570 -10.190412 0
M  V30 23 C 7.937694 6.496811 -13.348321 0 CFG=1
M  V30 24 H 9.035092 7.792716 -5.491663 0
M  V30 25 H 8.815175 8.853798 -6.882647 0
M  V30 26 H 8.226351 5.494601 -10.062746 0
M  V30 27 H 8.888135 4.543394 -11.362548 0
M  V30 28 H 11.806013 7.072131 -12.218474 0
M  V30 29 H 10.949354 5.529019 -12.106683 0
M  V30 30 H 10.760938 6.566934 -13.482464 0
M  V30 31 H 6.371125 5.545767 -14.614938 0
M  V30 32 H 5.453679 4.204983 -13.024530 0
M  V30 33 H 11.353110 8.466413 -5.216352 0
M  V30 34 H 10.635219 10.003567 -5.692100 0
M  V30 35 H 7.701611 0.331598 -14.987429 0
M  V30 36 H 6.003853 0.768458 -15.160984 0
M  V30 37 H 8.077699 2.749658 -12.613634 0
M  V30 38 H 6.509048 3.918982 -10.692537 0
M  V30 39 H 6.544559 2.974747 -15.203678 0
M  V30 40 H 8.236492 2.616882 -14.947580 0
M  V30 41 H 7.558714 0.291462 -12.607743 0
M  V30 42 H 5.883032 -0.154279 -12.969189 0
M  V30 43 H 11.939930 6.969130 -10.108338 0
M  V30 44 H 9.555860 8.258686 -12.096575 0
M  V30 45 H 11.935655 6.605918 -7.703390 0
M  V30 46 H 8.774654 5.581770 -15.201801 0
M  V30 47 H 9.204798 4.666188 -13.679189 0
M  V30 48 H 5.992755 6.204350 -10.273503 0
M  V30 49 H 9.034933 7.727712 -9.620070 0
M  V30 50 H 7.808070 7.474386 -13.810425 0
M  V30 51 H 7.681081 7.158389 -11.473974 0
M  V30 END ATOM
M  V30 BEGIN BOND
M  V30 1 1 6 5
M  V30 2 1 8 2
M  V30 3 1 8 7
M  V30 4 1 9 2
M  V30 5 1 11 3
M  V30 6 1 12 1
M  V30 7 1 12 6
M  V30 8 1 13 3
M  V30 9 1 13 6
M  V30 10 1 14 10
M  V30 11 1 14 12
M  V30 12 1 15 1
M  V30 13 1 15 10
M  V30 14 1 17 4
M  V30 15 1 17 11
M  V30 16 1 18 7
M  V30 17 1 18 9
M  V30 18 1 18 16
M  V30 19 1 19 5
M  V30 20 2 20 9
M  V30 21 1 21 13
M  V30 22 2 22 16
M  V30 23 1 22 17
M  V30 24 1 23 5
M  V30 25 1 23 11
M  V30 26 1 23 19
M  V30 27 1 24 2
M  V30 28 1 25 2
M  V30 29 1 26 3
M  V30 30 1 27 3
M  V30 31 1 28 4
M  V30 32 1 29 4
M  V30 33 1 30 4
M  V30 34 1 5 31 CFG=3
M  V30 35 1 6 32 CFG=3
M  V30 36 1 33 8
M  V30 37 1 34 8
M  V30 38 1 35 10
M  V30 39 1 36 10
M  V30 40 1 12 37 CFG=1
M  V30 41 1 13 38 CFG=1
M  V30 42 1 39 14
M  V30 43 1 40 14
M  V30 44 1 41 15
M  V30 45 1 42 15
M  V30 46 1 43 16
M  V30 47 1 17 44 CFG=3
M  V30 48 1 18 45 CFG=1
M  V30 49 1 46 19
M  V30 50 1 47 19
M  V30 51 1 48 21
M  V30 52 1 49 22
M  V30 53 1 23 50 CFG=3
M  V30 54 1 11 51 CFG=1
M  V30 END BOND
M  V30 END CTAB
M  END
>  <i_epik_Tot_Q>  (1) 
1

>  <i_epik_Tot_abs_Q>  (1) 
1

>  <i_i_glide_confnum>  (1) 
209

>  <i_i_glide_lignum>  (1) 
101

>  <i_i_glide_posenum>  (1) 
103

>  <i_i_glide_rotatable_bonds>  (1) 
5

>  <i_lp_mmshare_version>  (1) 
72125

>  <i_m_source_file_index>  (1) 
56

>  <i_f3d_flags>  (1) 
0

>  <num_sample>  (1) 
100

>  <b_lp_Chiralities_Consistent>  (1) 
1

>  <r_epik_Charging_Adjusted_Penalty>  (1) 
0.1887110856522376

>  <r_epik_Ionization_Penalty>  (1) 
0.094355642401006162

>  <r_epik_Ionization_Penalty_Charging>  (1) 
0.094355542826118813

>  <r_epik_Ionization_Penalty_Neutral>  (1) 
9.9574887353862298e-08

>  <r_epik_State_Penalty>  (1) 
0.094355542826118799

>  <r_glide_ring_energy>  (1) 
0

>  <r_i_docking_score>  (1) 
-6.0710590009013359

>  <r_i_glide_ecoul>  (1) 
-5.2111752595349587

>  <r_i_glide_eff_state_penalty>  (1) 
0.094355542826118799

>  <r_i_glide_einternal>  (1) 
8.2194791573116532

>  <r_i_glide_emodel>  (1) 
-49.121726829335749

>  <r_i_glide_emodel_strain>  (1) 
1.7836351565634274

>  <r_i_glide_energy>  (1) 
-40.487489756405481

>  <r_i_glide_erotb>  (1) 
0.49519417565235591

>  <r_i_glide_esite>  (1) 
-0.070482559823625709

>  <r_i_glide_evdw>  (1) 
-35.276314496870519

>  <r_i_glide_gscore>  (1) 
-6.1654145437274543

>  <r_i_glide_gscore_strain>  (1) 
0

>  <r_i_glide_hbond>  (1) 
-0.20845579563428532

>  <r_i_glide_ligand_efficiency>  (1) 
-0.26395908699571025

>  <r_i_glide_ligand_efficiency_ln>  (1) 
-1.4680371157374015

>  <r_i_glide_ligand_efficiency_sa>  (1) 
-0.75066453153886714

>  <r_i_glide_lipo>  (1) 
-1.8349926228754021

>  <r_i_glide_metal>  (1) 
-0

>  <r_i_glide_rewards>  (1) 
-2.0011857272727283

>  <r_lp_Energy>  (1) 
19.169269

>  <r_lp_tautomer_probability>  (1) 
0.99995000000000001

>  <s_epik_cmdline>  (1) 
J2VwaWtfcHl0aG9uJywgJy1waHQnLCAnMS4wJywgJy1waCcsICc3LjQnLCAnLXRuJywgJzgnLCAnLW1hJywgJzUwMCcsICctaW1hZScsICc8aW5maWxlLm1hZT4nLCAnLW9tYWUnLCAnPG91dGZpbGUubWFlPic=

>  <s_epik_input>  (1) 
W0NIMl0xW0NIMl1bQ0gyXU9bQ0BASF0xW0NASF0yW0NASF0oW09IXSlbQ0gyXU4oW0NASF0oW0NASF0yMylbQ0gyXTMpW0NASF0oW0NIM10pXFtDSF09W0NIXVxbQ0BIXTRTW0NIMl1bQ0gyXUM0PU8=

>  <s_glide_docking_method>  (1) 
confgen

>  <s_i_glide_gridfile>  (1) 
gpcr_drd2_6luq_protein_autoprepared_prepared

>  <s_lp_Force_Field>  (1) 
S-OPLS

>  <s_lp_Variant>  (1) 
DiffSBDD_55_num_sample_100-2

>  <s_m_source_file>  (1) 
generated__ligand_DiffSBDD_2026-05-06_prepared.sdf

>  <GenAI_Model>  (1) 
DiffSBDD

>  <Protein>  (1) 
generic_title2

$$$$
DiffSBDD_34_num_sample_100
     RDKit          3D

  0  0  0  0  0  0  0  0  0  0999 V3000
M  V30 BEGIN CTAB
M  V30 COUNTS 60 63 0 0 1
M  V30 BEGIN ATOM
M  V30 1 N 7.620336 3.950181 -16.421884 0
M  V30 2 C 5.794116 3.744721 -13.114759 0 CFG=1
M  V30 3 C 10.509667 7.037831 -8.933551 0
M  V30 4 C 10.221157 6.418872 -7.699122 0
M  V30 5 C 7.093776 1.483113 -13.808387 0
M  V30 6 C 12.855602 6.634014 -2.705181 0
M  V30 7 C 6.666458 2.501724 -12.702118 0
M  V30 8 C 7.434249 2.310929 -15.006568 0
M  V30 9 C 11.495312 9.125230 -5.245823 0
M  V30 10 N 11.779361 8.412760 -4.111436 0
M  V30 11 C 9.012431 6.638927 -11.041733 0
M  V30 12 C 11.394600 8.969279 -7.761776 0
M  V30 13 C 11.086274 8.312362 -8.959210 0
M  V30 14 C 11.140891 8.358887 -6.517268 0
M  V30 15 O 12.057738 9.214564 -2.972504 0
M  V30 16 C 5.651767 4.754283 -11.964575 0
M  V30 17 C 11.843586 6.967587 -3.814588 0
M  V30 18 C 5.958885 0.483959 -14.104180 0
M  V30 19 C 10.530879 7.074745 -6.488606 0
M  V30 20 C 8.229180 2.876146 -16.882767 0
M  V30 21 C 6.746987 5.842980 -12.047011 0 CFG=2
M  V30 22 O 7.466349 5.369303 -9.777868 0
M  V30 23 C 7.087339 3.624024 -15.209943 0
M  V30 24 O 11.544698 10.353651 -5.278095 0
M  V30 25 S 7.317434 5.910370 -13.774518 0
M  V30 26 C 10.234829 6.314053 -10.233314 0
M  V30 27 C 8.316031 0.697506 -13.304163 0
M  V30 28 C 7.926244 5.562228 -11.094860 0 CFG=2
M  V30 29 N 8.176942 1.794477 -16.108598 0
M  V30 30 C 6.301995 4.537569 -14.348552 0 CFG=2
M  V30 31 O 8.901377 7.711672 -11.636972 0
M  V30 32 H 4.806055 3.352511 -13.356671 0
M  V30 33 H 9.768703 5.436653 -7.679600 0
M  V30 34 H 12.908985 5.559066 -2.538965 0
M  V30 35 H 12.616265 7.082968 -1.740552 0
M  V30 36 H 13.834771 6.969607 -3.057281 0
M  V30 37 H 7.587660 2.911740 -12.291677 0
M  V30 38 H 6.188477 1.958367 -11.891760 0
M  V30 39 H 11.834831 9.948992 -7.792894 0
M  V30 40 H 11.300868 8.787667 -9.904853 0
M  V30 41 H 12.293096 8.587112 -2.307808 0
M  V30 42 H 4.693131 5.247498 -12.043561 0
M  V30 43 H 5.609826 4.249916 -10.999168 0
M  V30 44 H 10.868237 6.569290 -3.527237 0
M  V30 45 H 12.196718 6.417193 -4.684304 0
M  V30 46 H 5.732974 -0.128297 -13.230377 0
M  V30 47 H 6.236787 -0.197057 -14.908489 0
M  V30 48 H 5.030424 0.968842 -14.392991 0
M  V30 49 H 10.285414 6.596668 -5.560935 0
M  V30 50 H 8.737450 2.871317 -17.835017 0
M  V30 51 H 6.308731 6.809817 -11.789853 0
M  V30 52 H 7.163505 6.243682 -9.491738 0
M  V30 53 H 7.560511 4.848244 -16.879503 0
M  V30 54 H 10.234835 5.241250 -10.041633 0
M  V30 55 H 11.053186 6.569320 -10.904602 0
M  V30 56 H 8.082887 0.168760 -12.382332 0
M  V30 57 H 9.159721 1.353738 -13.092297 0
M  V30 58 H 8.634847 -0.043294 -14.037185 0
M  V30 59 H 8.421540 4.642208 -11.400169 0
M  V30 60 H 5.457688 4.970111 -14.885058 0
M  V30 END ATOM
M  V30 BEGIN BOND
M  V30 1 1 4 3
M  V30 2 1 7 2
M  V30 3 1 7 5
M  V30 4 1 8 5
M  V30 5 1 10 9
M  V30 6 2 13 3
M  V30 7 1 13 12
M  V30 8 1 14 9
M  V30 9 2 14 12
M  V30 10 1 15 10
M  V30 11 1 16 2
M  V30 12 1 17 6
M  V30 13 1 17 10
M  V30 14 1 18 5
M  V30 15 2 19 4
M  V30 16 1 19 14
M  V30 17 1 20 1
M  V30 18 1 21 16
M  V30 19 1 23 1
M  V30 20 2 23 8
M  V30 21 2 24 9
M  V30 22 1 25 21
M  V30 23 1 26 3
M  V30 24 1 26 11
M  V30 25 1 27 5
M  V30 26 1 28 11
M  V30 27 1 28 21
M  V30 28 1 28 22
M  V30 29 1 29 8
M  V30 30 2 29 20
M  V30 31 1 30 2
M  V30 32 1 30 23
M  V30 33 1 30 25
M  V30 34 2 31 11
M  V30 35 1 2 32 CFG=3
M  V30 36 1 33 4
M  V30 37 1 34 6
M  V30 38 1 35 6
M  V30 39 1 36 6
M  V30 40 1 37 7
M  V30 41 1 38 7
M  V30 42 1 39 12
M  V30 43 1 40 13
M  V30 44 1 41 15
M  V30 45 1 42 16
M  V30 46 1 43 16
M  V30 47 1 44 17
M  V30 48 1 45 17
M  V30 49 1 46 18
M  V30 50 1 47 18
M  V30 51 1 48 18
M  V30 52 1 49 19
M  V30 53 1 50 20
M  V30 54 1 21 51 CFG=1
M  V30 55 1 52 22
M  V30 56 1 53 1
M  V30 57 1 54 26
M  V30 58 1 55 26
M  V30 59 1 56 27
M  V30 60 1 57 27
M  V30 61 1 58 27
M  V30 62 1 28 59 CFG=3
M  V30 63 1 30 60 CFG=3
M  V30 END BOND
M  V30 END CTAB
M  END
>  <i_epik_Tot_Q>  (1) 
0

>  <i_epik_Tot_abs_Q>  (1) 
0

>  <i_i_glide_confnum>  (1) 
134

>  <i_i_glide_lignum>  (1) 
61

>  <i_i_glide_posenum>  (1) 
157

>  <i_i_glide_rotatable_bonds>  (1) 
9

>  <i_lp_mmshare_version>  (1) 
72125

>  <i_m_source_file_index>  (1) 
35

>  <i_f3d_flags>  (1) 
0

>  <num_sample>  (1) 
100

>  <b_lp_Chiralities_Consistent>  (1) 
1

>  <r_epik_Charging_Adjusted_Penalty>  (1) 
1.1277689447001258

>  <r_epik_Ionization_Penalty>  (1) 
0.43889215687938127

>  <r_epik_Ionization_Penalty_Charging>  (1) 
0.41727290489040414

>  <r_epik_Ionization_Penalty_Neutral>  (1) 
0.021619251988977111

>  <r_epik_State_Penalty>  (1) 
0.71049603980972165

>  <r_glide_ring_energy>  (1) 
0

>  <r_i_docking_score>  (1) 
-6.0623474994295306

>  <r_i_glide_ecoul>  (1) 
-5.1416617767142689

>  <r_i_glide_eff_state_penalty>  (1) 
0.71049603980972165

>  <r_i_glide_einternal>  (1) 
23.074469043765362

>  <r_i_glide_emodel>  (1) 
-47.180699703698551

>  <r_i_glide_emodel_strain>  (1) 
0.26367675164256354

>  <r_i_glide_energy>  (1) 
-43.584961787502948

>  <r_i_glide_erotb>  (1) 
0.6096786253841594

>  <r_i_glide_esite>  (1) 
-0.078751835121243133

>  <r_i_glide_evdw>  (1) 
-38.443300010788676

>  <r_i_glide_gscore>  (1) 
-6.7728435392392523

>  <r_i_glide_gscore_strain>  (1) 
0

>  <r_i_glide_hbond>  (1) 
-0.16

>  <r_i_glide_ligand_efficiency>  (1) 
-0.19555959675579132

>  <r_i_glide_ligand_efficiency_ln>  (1) 
-1.367245149759845

>  <r_i_glide_ligand_efficiency_sa>  (1) 
-0.61432713363810554

>  <r_i_glide_lipo>  (1) 
-2.6346082796634525

>  <r_i_glide_metal>  (1) 
-0

>  <r_i_glide_rewards>  (1) 
-1.8157477827921402

>  <r_lp_Energy>  (1) 
35.794798

>  <r_lp_tautomer_probability>  (1) 
0.49995000249987359

>  <s_epik_Chemistry_Notes>  (1) 
This compound has a N-S or N-O group and may undergo hydrolysis at high or low pH.

>  <s_epik_cmdline>  (1) 
J2VwaWtfcHl0aG9uJywgJy1waHQnLCAnMS4wJywgJy1waCcsICc3LjQnLCAnLXRuJywgJzgnLCAnLW1hJywgJzUwMCcsICctaW1hZScsICc8aW5maWxlLm1hZT4nLCAnLW9tYWUnLCAnPG91dGZpbGUubWFlPic=

>  <s_epik_input>  (1) 
TjE9W0NIXU49QyhDKFtDSDJdMikoW0NIM10pW0NIM10pW0NASF0xW0NAQEhdKFtDQEBIXTIzKVNbQ0BASF0oW0NIMl0zKVtDQEhdKFtPSF0pQyg9TylbQ0gyXWM0W2NIXVtjSF1jKFtjSF1bY0hdNClDKD1PKU4oW09IXSlbQ0gyXVtDSDNd

>  <s_glide_docking_method>  (1) 
confgen

>  <s_i_glide_gridfile>  (1) 
gpcr_drd2_6luq_protein_autoprepared_prepared

>  <s_lp_Force_Field>  (1) 
S-OPLS

>  <s_lp_Variant>  (1) 
DiffSBDD_34_num_sample_100-2

>  <s_m_source_file>  (1) 
generated__ligand_DiffSBDD_2026-05-06_prepared.sdf

>  <GenAI_Model>  (1) 
DiffSBDD

>  <Protein>  (1) 
generic_title2

$$$$
DiffSBDD_61_num_sample_100
     RDKit          3D

  0  0  0  0  0  0  0  0  0  0999 V3000
M  V30 BEGIN CTAB
M  V30 COUNTS 51 53 0 0 1
M  V30 BEGIN ATOM
M  V30 1 N 11.434837 8.217946 -4.976104 0
M  V30 2 C 6.195314 5.839983 -12.777851 0
M  V30 3 C 7.541619 6.119016 -12.069215 0 CFG=1
M  V30 4 O 12.634839 8.016189 -1.603616 0
M  V30 5 C 12.334931 6.693289 -1.891665 0
M  V30 6 O 7.463617 5.769300 -10.694759 0
M  V30 7 C 11.360236 7.978225 -10.169560 0
M  V30 8 O 7.721105 3.091800 -13.091600 0
M  V30 9 C 11.858292 8.965834 -9.116441 0
M  V30 10 C 9.462296 7.709694 -11.860020 0 CFG=1
M  V30 11 C 10.764436 7.212822 -5.792391 0
M  V30 12 C 8.673270 5.318279 -12.760337 0 CFG=2
M  V30 13 C 8.748156 3.808408 -12.434472 0
M  V30 14 C 11.303749 7.328936 -7.217120 0
M  V30 15 C 7.961685 7.604345 -12.145216 0
M  V30 16 C 11.227881 8.786067 -7.727110 0
M  V30 17 O 5.768785 6.715664 -13.562157 0 CHG=-1
M  V30 18 C 11.346679 9.624008 -5.318151 0
M  V30 19 C 9.834728 8.008424 -10.401641 0
M  V30 20 C 11.905924 9.760517 -6.728963 0
M  V30 21 C 12.324514 8.715691 -2.736144 0
M  V30 22 C 11.843228 7.865977 -3.680303 0
M  V30 23 C 11.834826 6.568589 -3.150451 0
M  V30 24 S 10.226601 6.158560 -12.372193 0
M  V30 25 O 5.633188 4.747498 -12.526591 0
M  V30 26 H 12.537138 5.990159 -1.096514 0
M  V30 27 H 7.056007 6.496034 -10.214279 0
M  V30 28 H 11.662185 6.969302 -9.896885 0
M  V30 29 H 11.902190 8.169311 -11.091650 0
M  V30 30 H 6.891863 3.524972 -12.878075 0
M  V30 31 H 12.941447 8.861384 -9.038834 0
M  V30 32 H 11.682074 9.981769 -9.471760 0
M  V30 33 H 9.834829 8.519332 -12.480560 0
M  V30 34 H 9.691496 7.408494 -5.783106 0
M  V30 35 H 10.899195 6.186116 -5.463834 0
M  V30 36 H 8.569231 5.429252 -13.841687 0
M  V30 37 H 8.689862 3.634203 -11.361050 0
M  V30 38 H 9.705857 3.397988 -12.750251 0
M  V30 39 H 10.729293 6.655910 -7.853539 0
M  V30 40 H 12.331854 6.976232 -7.247553 0
M  V30 41 H 7.372968 8.248528 -11.491681 0
M  V30 42 H 7.810341 7.984384 -13.156303 0
M  V30 43 H 10.162980 9.008895 -7.786488 0
M  V30 44 H 10.303581 9.935746 -5.283683 0
M  V30 45 H 11.903947 10.280193 -4.656732 0
M  V30 46 H 9.412744 8.969300 -10.121259 0
M  V30 47 H 9.364065 7.288676 -9.733047 0
M  V30 48 H 12.974092 9.539299 -6.691559 0
M  V30 49 H 11.834840 10.796010 -7.054238 0
M  V30 50 H 12.510209 9.776842 -2.692427 0
M  V30 51 H 11.521714 5.654308 -3.620504 0
M  V30 END ATOM
M  V30 BEGIN BOND
M  V30 1 1 3 2
M  V30 2 1 5 4
M  V30 3 1 3 6 CFG=1
M  V30 4 1 9 7
M  V30 5 1 11 1
M  V30 6 1 12 3
M  V30 7 1 13 8
M  V30 8 1 13 12
M  V30 9 1 14 11
M  V30 10 1 15 3
M  V30 11 1 15 10
M  V30 12 1 16 9
M  V30 13 1 16 14
M  V30 14 1 17 2
M  V30 15 1 18 1
M  V30 16 1 19 7
M  V30 17 1 19 10
M  V30 18 1 20 16
M  V30 19 1 20 18
M  V30 20 1 21 4
M  V30 21 1 22 1
M  V30 22 2 22 21
M  V30 23 2 23 5
M  V30 24 1 23 22
M  V30 25 1 24 10
M  V30 26 1 24 12
M  V30 27 2 25 2
M  V30 28 1 26 5
M  V30 29 1 27 6
M  V30 30 1 28 7
M  V30 31 1 29 7
M  V30 32 1 30 8
M  V30 33 1 31 9
M  V30 34 1 32 9
M  V30 35 1 10 33 CFG=3
M  V30 36 1 34 11
M  V30 37 1 35 11
M  V30 38 1 12 36 CFG=3
M  V30 39 1 37 13
M  V30 40 1 38 13
M  V30 41 1 39 14
M  V30 42 1 40 14
M  V30 43 1 41 15
M  V30 44 1 42 15
M  V30 45 1 43 16
M  V30 46 1 44 18
M  V30 47 1 45 18
M  V30 48 1 46 19
M  V30 49 1 47 19
M  V30 50 1 48 20
M  V30 51 1 49 20
M  V30 52 1 50 21
M  V30 53 1 51 23
M  V30 END BOND
M  V30 END CTAB
M  END
>  <i_epik_Tot_Q>  (1) 
-1

>  <i_epik_Tot_abs_Q>  (1) 
1

>  <i_i_glide_confnum>  (1) 
43

>  <i_i_glide_lignum>  (1) 
123

>  <i_i_glide_posenum>  (1) 
19

>  <i_i_glide_rotatable_bonds>  (1) 
9

>  <i_lp_mmshare_version>  (1) 
72125

>  <i_m_source_file_index>  (1) 
62

>  <i_f3d_flags>  (1) 
0

>  <num_sample>  (1) 
100

>  <b_lp_Chiralities_Consistent>  (1) 
1

>  <r_epik_Charging_Adjusted_Penalty>  (1) 
0.8774089377882176

>  <r_epik_Ionization_Penalty>  (1) 
0.8774093123040011

>  <r_epik_Ionization_Penalty_Charging>  (1) 
6.4905039586267643e-05

>  <r_epik_Ionization_Penalty_Neutral>  (1) 
0.87734440726441487

>  <r_epik_State_Penalty>  (1) 
0.87734403274863138

>  <r_glide_ring_energy>  (1) 
0

>  <r_i_docking_score>  (1) 
-6.0582590652885306

>  <r_i_glide_ecoul>  (1) 
-5.5690533717026351

>  <r_i_glide_eff_state_penalty>  (1) 
0.87734403274863138

>  <r_i_glide_einternal>  (1) 
8.6678232418567109

>  <r_i_glide_emodel>  (1) 
-41.614637742712645

>  <r_i_glide_emodel_strain>  (1) 
3.9981177848196836

>  <r_i_glide_energy>  (1) 
-36.614517095318718

>  <r_i_glide_erotb>  (1) 
0.85157240902219222

>  <r_i_glide_esite>  (1) 
-0.0048299062419668252

>  <r_i_glide_evdw>  (1) 
-31.045463723616084

>  <r_i_glide_gscore>  (1) 
-6.9356030980371619

>  <r_i_glide_gscore_strain>  (1) 
0

>  <r_i_glide_hbond>  (1) 
-0.16

>  <r_i_glide_ligand_efficiency>  (1) 
-0.24233036261154123

>  <r_i_glide_ligand_efficiency_ln>  (1) 
-1.4359889498472718

>  <r_i_glide_ligand_efficiency_sa>  (1) 
-0.7085782787837025

>  <r_i_glide_lipo>  (1) 
-3.262680048846256

>  <r_i_glide_metal>  (1) 
-0

>  <r_i_glide_rewards>  (1) 
-1.9720343600349319

>  <r_lp_Energy>  (1) 
22.683494

>  <r_lp_tautomer_probability>  (1) 
1

>  <s_epik_cmdline>  (1) 
J2VwaWtfcHl0aG9uJywgJy1waHQnLCAnMS4wJywgJy1waCcsICc3LjQnLCAnLXRuJywgJzgnLCAnLW1hJywgJzUwMCcsICctaW1hZScsICc8aW5maWxlLm1hZT4nLCAnLW9tYWUnLCAnPG91dGZpbGUubWFlPic=

>  <s_epik_input>  (1) 
W2NIXTFbY0hdb1tjSF1jMU4yW0NIMl1bQ0gyXVtDSF0oW0NIMl1bQ0gyXTIpW0NIMl1bQ0gyXVtDSDJdW0NASF0oW0NIMl0zKVNbQ0BASF0oW0NIMl1bT0hdKVtDQF0zKFtPSF0pQyg9TylbT0hd

>  <s_glide_docking_method>  (1) 
confgen

>  <s_i_glide_gridfile>  (1) 
gpcr_drd2_6luq_protein_autoprepared_prepared

>  <s_lp_Force_Field>  (1) 
S-OPLS

>  <s_lp_Variant>  (1) 
DiffSBDD_61_num_sample_100-3

>  <s_m_source_file>  (1) 
generated__ligand_DiffSBDD_2026-05-06_prepared.sdf

>  <GenAI_Model>  (1) 
DiffSBDD

>  <Protein>  (1) 
generic_title2

$$$$
DiffSBDD_76_num_sample_100
     RDKit          3D

  0  0  0  0  0  0  0  0  0  0999 V3000
M  V30 BEGIN CTAB
M  V30 COUNTS 78 81 0 0 1
M  V30 BEGIN ATOM
M  V30 1 C 9.590135 6.331288 -11.542893 0
M  V30 2 C 11.417270 8.431519 -7.226770 0
M  V30 3 C 7.243430 4.512594 -12.214556 0
M  V30 4 N 8.601194 5.932907 -10.515176 0 CFG=1 CHG=1
M  V30 5 C 11.834823 8.674304 -5.888722 0
M  V30 6 C 7.177716 -0.704736 -20.388031 0
M  V30 7 C 8.068571 -1.314259 -19.593564 0
M  V30 8 C 6.502290 -0.350562 -16.335276 0 CFG=1
M  V30 9 C 10.595125 7.916096 -9.831039 0
M  V30 10 N 7.377242 1.421501 -14.693517 0 CFG=2 CHG=1
M  V30 11 C 8.245851 0.524583 -13.864377 0
M  V30 12 C 10.131009 7.070488 -8.814551 0
M  V30 13 C 8.295234 -0.930477 -18.137080 0
M  V30 14 C 10.169445 6.464182 -6.438882 0
M  V30 15 C 11.450417 8.969303 -9.491657 0
M  V30 16 C 5.013876 0.561972 -14.364526 0
M  V30 17 C 10.182375 7.701094 -11.265056 0
M  V30 18 C 7.221458 2.840620 -14.223176 0
M  V30 19 N 11.834835 9.230490 -8.236137 0
M  V30 20 O 7.434354 0.169325 -12.766450 0
M  V30 21 O 12.633917 8.921798 -3.033296 0
M  V30 22 C 7.313692 0.154116 -17.572759 0 CFG=1
M  V30 23 C 11.465393 7.770142 -4.841141 0
M  V30 24 C 7.173289 3.049674 -12.691591 0
M  V30 25 N 5.590155 -2.425975 -17.477770 0 CHG=1
M  V30 26 C 6.169079 0.830606 -15.362235 0 CFG=2
M  V30 27 O 12.634789 9.762676 -5.625537 0 CHG=-1
M  V30 28 C 7.938850 4.633045 -10.824549 0
M  V30 29 C 10.563629 7.314760 -7.483136 0
M  V30 30 C 9.195787 5.900194 -9.145279 0
M  V30 31 C 5.249808 -1.181820 -16.758385 0
M  V30 32 C 6.352448 0.373185 -19.908693 0
M  V30 33 C 6.403608 0.785465 -18.633625 0
M  V30 34 C 11.994343 7.946933 -3.423748 0
M  V30 35 C 10.634758 6.673268 -5.135538 0
M  V30 36 C 11.700683 6.798308 -2.452746 0
M  V30 37 H 10.364304 5.572116 -11.609079 0
M  V30 38 H 9.162263 6.414647 -12.536066 0
M  V30 39 H 7.768868 5.050151 -12.994253 0
M  V30 40 H 6.248088 4.957820 -12.179412 0
M  V30 41 H 7.079927 -1.025946 -21.415174 0
M  V30 42 H 8.676623 -2.116896 -19.986716 0
M  V30 43 H 7.132304 -1.030688 -15.776871 0
M  V30 44 H 9.124614 1.052272 -13.500148 0
M  V30 45 H 8.598517 -0.358754 -14.393091 0
M  V30 46 H 9.318533 -0.559163 -18.063807 0
M  V30 47 H 8.283137 -1.839498 -17.536743 0
M  V30 48 H 9.528021 5.623832 -6.639413 0
M  V30 49 H 11.834677 9.631065 -10.254045 0
M  V30 50 H 4.056521 0.441039 -14.871008 0
M  V30 51 H 5.189091 -0.337064 -13.781957 0
M  V30 52 H 4.884615 1.369288 -13.648793 0
M  V30 53 H 9.486956 8.492631 -11.551176 0
M  V30 54 H 11.062732 7.769296 -11.894948 0
M  V30 55 H 8.087820 3.378964 -14.608890 0
M  V30 56 H 6.355128 3.315397 -14.684524 0
M  V30 57 H 7.958002 0.235234 -11.978773 0
M  V30 58 H 7.956608 0.973258 -17.249115 0
M  V30 59 H 6.307038 2.556443 -12.249305 0
M  V30 60 H 8.057256 2.564420 -12.291681 0
M  V30 61 H 4.750173 -2.966248 -17.634889 0
M  V30 62 H 6.023864 -2.201894 -18.363435 0
M  V30 63 H 5.834838 1.616174 -16.032379 0
M  V30 64 H 7.211959 4.405296 -10.041057 0
M  V30 65 H 8.719410 3.875504 -10.738140 0
M  V30 66 H 8.362525 5.880146 -8.439613 0
M  V30 67 H 9.767873 4.979894 -9.009848 0
M  V30 68 H 4.684482 -1.499878 -15.891637 0
M  V30 69 H 4.553896 -0.595992 -17.358673 0
M  V30 70 H 5.676142 0.865230 -20.596262 0
M  V30 71 H 5.771587 1.600753 -18.312798 0
M  V30 72 H 10.344293 5.984933 -4.357120 0
M  V30 73 H 10.636801 6.626481 -2.292870 0
M  V30 74 H 12.143914 5.874315 -2.825350 0
M  V30 75 H 12.155643 7.025311 -1.491722 0
M  V30 76 H 6.228153 -2.978914 -16.918329 0
M  V30 77 H 7.891903 6.664296 -10.454305 0
M  V30 78 H 7.968122 1.561870 -15.499003 0
M  V30 END ATOM
M  V30 BEGIN BOND
M  V30 1 1 4 1
M  V30 2 2 5 2
M  V30 3 2 7 6
M  V30 4 1 11 10
M  V30 5 2 12 9
M  V30 6 1 13 7
M  V30 7 1 15 9
M  V30 8 1 17 1
M  V30 9 1 17 9
M  V30 10 1 18 10
M  V30 11 1 19 2
M  V30 12 2 19 15
M  V30 13 1 20 11
M  V30 14 1 22 8
M  V30 15 1 22 13
M  V30 16 1 23 5
M  V30 17 1 24 3
M  V30 18 1 24 18
M  V30 19 1 26 8
M  V30 20 1 26 10
M  V30 21 1 26 16
M  V30 22 1 27 5
M  V30 23 1 28 3
M  V30 24 1 28 4
M  V30 25 1 29 2
M  V30 26 1 29 12
M  V30 27 2 29 14
M  V30 28 1 30 4
M  V30 29 1 30 12
M  V30 30 1 31 8
M  V30 31 1 31 25
M  V30 32 1 32 6
M  V30 33 1 33 22
M  V30 34 2 33 32
M  V30 35 2 34 21
M  V30 36 1 34 23
M  V30 37 1 35 14
M  V30 38 2 35 23
M  V30 39 1 36 34
M  V30 40 1 37 1
M  V30 41 1 38 1
M  V30 42 1 39 3
M  V30 43 1 40 3
M  V30 44 1 41 6
M  V30 45 1 42 7
M  V30 46 1 8 43 CFG=1
M  V30 47 1 44 11
M  V30 48 1 45 11
M  V30 49 1 46 13
M  V30 50 1 47 13
M  V30 51 1 48 14
M  V30 52 1 49 15
M  V30 53 1 50 16
M  V30 54 1 51 16
M  V30 55 1 52 16
M  V30 56 1 53 17
M  V30 57 1 54 17
M  V30 58 1 55 18
M  V30 59 1 56 18
M  V30 60 1 57 20
M  V30 61 1 22 58 CFG=1
M  V30 62 1 59 24
M  V30 63 1 60 24
M  V30 64 1 61 25
M  V30 65 1 62 25
M  V30 66 1 26 63 CFG=3
M  V30 67 1 64 28
M  V30 68 1 65 28
M  V30 69 1 66 30
M  V30 70 1 67 30
M  V30 71 1 68 31
M  V30 72 1 69 31
M  V30 73 1 70 32
M  V30 74 1 71 33
M  V30 75 1 72 35
M  V30 76 1 73 36
M  V30 77 1 74 36
M  V30 78 1 75 36
M  V30 79 1 76 25
M  V30 80 1 4 77 CFG=1
M  V30 81 1 10 78 CFG=3
M  V30 END BOND
M  V30 END CTAB
M  END
>  <i_epik_Tot_Q>  (1) 
2

>  <i_epik_Tot_abs_Q>  (1) 
4

>  <i_i_glide_confnum>  (1) 
176

>  <i_i_glide_lignum>  (1) 
156

>  <i_i_glide_posenum>  (1) 
334

>  <i_i_glide_rotatable_bonds>  (1) 
12

>  <i_lp_mmshare_version>  (1) 
72125

>  <i_m_source_file_index>  (1) 
77

>  <i_f3d_flags>  (1) 
0

>  <num_sample>  (1) 
100

>  <b_lp_Chiralities_Consistent>  (1) 
1

>  <r_epik_Charging_Adjusted_Penalty>  (1) 
2.7385366295040585

>  <r_epik_Ionization_Penalty>  (1) 
1.4403839023663505

>  <r_epik_Ionization_Penalty_Charging>  (1) 
1.4088334024277234

>  <r_epik_Ionization_Penalty_Neutral>  (1) 
0.03155049993862722

>  <r_epik_State_Penalty>  (1) 
1.3297032270763354

>  <r_glide_ring_energy>  (1) 
0.68305203791256597

>  <r_i_docking_score>  (1) 
-6.0545483552300823

>  <r_i_glide_ecoul>  (1) 
-12.616832783075001

>  <r_i_glide_eff_state_penalty>  (1) 
1.3297032270763354

>  <r_i_glide_einternal>  (1) 
10.179673093208073

>  <r_i_glide_emodel>  (1) 
-71.539929262637983

>  <r_i_glide_emodel_strain>  (1) 
1.4583228125427894

>  <r_i_glide_energy>  (1) 
-46.617558261443079

>  <r_i_glide_erotb>  (1) 
0.66625950385389887

>  <r_i_glide_esite>  (1) 
-0.11654930411143914

>  <r_i_glide_evdw>  (1) 
-34.000725478368082

>  <r_i_glide_gscore>  (1) 
-7.3842515823064172

>  <r_i_glide_gscore_strain>  (1) 
0

>  <r_i_glide_hbond>  (1) 
-0.37735857182235194

>  <r_i_glide_ligand_efficiency>  (1) 
-0.16818189875639117

>  <r_i_glide_ligand_efficiency_ln>  (1) 
-1.3209388761180654

>  <r_i_glide_ligand_efficiency_sa>  (1) 
-0.55532439427456548

>  <r_i_glide_lipo>  (1) 
-2.2298536940431632

>  <r_i_glide_metal>  (1) 
-0

>  <r_i_glide_rewards>  (1) 
-1.7341883248037084

>  <r_lp_Energy>  (1) 
77.340654000000001

>  <r_lp_tautomer_probability>  (1) 
0.99995000000000001

>  <s_epik_Chemistry_Notes>  (1) 
This compound contains an acetal/aminal-like group ( X-CH(R)-Y where X, Y are N, S, or O) that may be acid/base labile, releasing an aldehyde.

>  <s_epik_cmdline>  (1) 
J2VwaWtfcHl0aG9uJywgJy1waHQnLCAnMS4wJywgJy1waCcsICc3LjQnLCAnLXRuJywgJzgnLCAnLW1hJywgJzUwMCcsICctaW1hZScsICc8aW5maWxlLm1hZT4nLCAnLW9tYWUnLCAnPG91dGZpbGUubWFlPic=

>  <s_epik_input>  (1) 
Tz1DKFtDSDNdKWMoYzFbT0hdKVtjSF1bY0hdYyhjMTIpYzNjKFtjSF1uMilbQ0gyXVtDSDJdTihbQ0gyXTMpW0NIMl1bQ0gyXVtDSDJdW0NIMl1OKFtDSDJdW09IXSlbQ0BIXShbQ0gzXSlbQ0BASF0oW0NIMl1bTkgyXSlbQ0BIXTRbQ0gyXVtDSF09W0NIXVtDSF09W0NIXTQ=

>  <s_glide_docking_method>  (1) 
confgen

>  <s_i_glide_gridfile>  (1) 
gpcr_drd2_6luq_protein_autoprepared_prepared

>  <s_lp_Force_Field>  (1) 
S-OPLS

>  <s_lp_Variant>  (1) 
DiffSBDD_76_num_sample_100-5

>  <s_m_source_file>  (1) 
generated__ligand_DiffSBDD_2026-05-06_prepared.sdf

>  <GenAI_Model>  (1) 
DiffSBDD

>  <Protein>  (1) 
generic_title2

$$$$
DiffSBDD_31_num_sample_100
     RDKit          3D

  0  0  0  0  0  0  0  0  0  0999 V3000
M  V30 BEGIN CTAB
M  V30 COUNTS 50 53 0 0 1
M  V30 BEGIN ATOM
M  V30 1 C 8.847220 5.593992 -9.718387 0
M  V30 2 C 10.302695 7.361340 -8.641422 0
M  V30 3 C 11.149424 7.995903 -6.485342 0
M  V30 4 O 13.034671 8.468531 -1.212719 0
M  V30 5 C 6.431805 5.941483 -14.575368 0
M  V30 6 C 7.847949 5.450434 -14.225909 0 CFG=1
M  V30 7 C 11.434839 7.026842 -4.198917 0
M  V30 8 N 9.692494 6.790713 -9.744025 0
M  V30 9 C 11.597626 8.098155 -5.108833 0
M  V30 10 O 11.736625 6.169301 -1.984274 0
M  V30 11 S 10.220932 6.615731 -7.048680 0
M  V30 12 C 11.908827 7.162541 -2.876707 0
M  V30 13 C 9.314297 4.535134 -10.715428 0
M  V30 14 C 7.975463 5.292961 -12.696354 0 CFG=1
M  V30 15 C 5.518541 4.934378 -12.393956 0 CFG=2
M  V30 16 N 11.416558 8.895830 -7.436774 0
M  V30 17 Cl 5.434839 6.498280 -11.533629 0
M  V30 18 C 9.730675 7.356647 -11.088250 0
M  V30 19 C 6.874471 4.342077 -12.133626 0
M  V30 20 N 10.986736 8.506293 -8.677284 0
M  V30 21 C 12.560277 8.334326 -2.483873 0
M  V30 22 C 12.246443 9.267468 -4.692841 0
M  V30 23 C 12.730300 9.369301 -3.392013 0
M  V30 24 C 9.393522 5.048758 -12.150110 0
M  V30 25 C 5.359217 5.066286 -13.898527 0
M  V30 26 C 10.234839 6.342966 -12.124250 0
M  V30 27 Cl 8.176138 3.916871 -15.074290 0
M  V30 28 H 8.810342 5.147576 -8.726286 0
M  V30 29 H 7.824703 5.889259 -9.936298 0
M  V30 30 H 13.434817 9.319458 -1.078480 0
M  V30 31 H 6.293067 5.943517 -15.657195 0
M  V30 32 H 6.314924 6.976336 -14.250564 0
M  V30 33 H 8.576573 6.169123 -14.597813 0
M  V30 34 H 10.942678 6.115398 -4.503967 0
M  V30 35 H 12.156087 6.380858 -1.164185 0
M  V30 36 H 10.234839 4.169300 -10.359679 0
M  V30 37 H 8.751644 3.616422 -10.691668 0
M  V30 38 H 7.745933 6.285156 -12.337573 0
M  V30 39 H 4.741929 4.290922 -11.979295 0
M  V30 40 H 8.749571 7.761546 -11.332150 0
M  V30 41 H 10.399605 8.215265 -11.106906 0
M  V30 42 H 6.964821 3.339300 -12.553025 0
M  V30 43 H 6.866198 4.228516 -11.053764 0
M  V30 44 H 12.391330 10.085064 -5.384187 0
M  V30 45 H 13.240428 10.237742 -3.091668 0
M  V30 46 H 9.883734 4.292542 -12.763012 0
M  V30 47 H 5.434856 4.056993 -14.291705 0
M  V30 48 H 4.355429 5.383713 -14.154794 0
M  V30 49 H 11.278144 6.133207 -11.904958 0
M  V30 50 H 10.257752 6.812439 -13.091667 0
M  V30 END ATOM
M  V30 BEGIN BOND
M  V30 1 1 6 5
M  V30 2 1 8 1
M  V30 3 1 8 2
M  V30 4 1 9 3
M  V30 5 2 9 7
M  V30 6 1 11 2
M  V30 7 1 11 3
M  V30 8 1 12 7
M  V30 9 1 12 10
M  V30 10 1 13 1
M  V30 11 1 14 6
M  V30 12 2 16 3
M  V30 13 1 17 15
M  V30 14 1 18 8
M  V30 15 1 19 14
M  V30 16 1 19 15
M  V30 17 2 20 2
M  V30 18 1 20 16
M  V30 19 1 21 4
M  V30 20 2 21 12
M  V30 21 1 22 9
M  V30 22 1 23 21
M  V30 23 2 23 22
M  V30 24 1 24 13
M  V30 25 1 24 14
M  V30 26 1 25 5
M  V30 27 1 25 15
M  V30 28 1 26 18
M  V30 29 1 26 24
M  V30 30 1 27 6
M  V30 31 1 28 1
M  V30 32 1 29 1
M  V30 33 1 30 4
M  V30 34 1 31 5
M  V30 35 1 32 5
M  V30 36 1 6 33 CFG=3
M  V30 37 1 34 7
M  V30 38 1 35 10
M  V30 39 1 36 13
M  V30 40 1 37 13
M  V30 41 1 14 38 CFG=1
M  V30 42 1 15 39 CFG=1
M  V30 43 1 40 18
M  V30 44 1 41 18
M  V30 45 1 42 19
M  V30 46 1 43 19
M  V30 47 1 44 22
M  V30 48 1 45 23
M  V30 49 1 46 24
M  V30 50 1 47 25
M  V30 51 1 48 25
M  V30 52 1 49 26
M  V30 53 1 50 26
M  V30 END BOND
M  V30 END CTAB
M  END
>  <i_epik_Tot_Q>  (1) 
0

>  <i_epik_Tot_abs_Q>  (1) 
0

>  <i_i_glide_confnum>  (1) 
34

>  <i_i_glide_lignum>  (1) 
56

>  <i_i_glide_posenum>  (1) 
236

>  <i_i_glide_rotatable_bonds>  (1) 
5

>  <i_lp_mmshare_version>  (1) 
72125

>  <i_m_source_file_index>  (1) 
32

>  <i_f3d_flags>  (1) 
0

>  <num_sample>  (1) 
100

>  <b_lp_Chiralities_Consistent>  (1) 
1

>  <r_epik_Charging_Adjusted_Penalty>  (1) 
0.030402742638392096

>  <r_epik_Ionization_Penalty>  (1) 
0.030794834145842404

>  <r_epik_Ionization_Penalty_Charging>  (1) 
0

>  <r_epik_Ionization_Penalty_Neutral>  (1) 
0.030794834145842404

>  <r_epik_State_Penalty>  (1) 
0.030402742638392096

>  <r_glide_ring_energy>  (1) 
1.8967887167309052

>  <r_i_docking_score>  (1) 
-6.0486802229084082

>  <r_i_glide_ecoul>  (1) 
-1.7962421964095707

>  <r_i_glide_eff_state_penalty>  (1) 
0.030402742638392096

>  <r_i_glide_einternal>  (1) 
0.94609644666693171

>  <r_i_glide_emodel>  (1) 
-40.819384856081463

>  <r_i_glide_emodel_strain>  (1) 
0.50636887613745785

>  <r_i_glide_energy>  (1) 
-31.752117680324702

>  <r_i_glide_erotb>  (1) 
0.32471647886420552

>  <r_i_glide_esite>  (1) 
-0.099054529347653575

>  <r_i_glide_evdw>  (1) 
-29.955875483915129

>  <r_i_glide_gscore>  (1) 
-6.0790829655468004

>  <r_i_glide_gscore_strain>  (1) 
0

>  <r_i_glide_hbond>  (1) 
-0.32000000000000001

>  <r_i_glide_ligand_efficiency>  (1) 
-0.22402519344105215

>  <r_i_glide_ligand_efficiency_ln>  (1) 
-1.4080330356060389

>  <r_i_glide_ligand_efficiency_sa>  (1) 
-0.67207558032315662

>  <r_i_glide_lipo>  (1) 
-3.2416834446539697

>  <r_i_glide_metal>  (1) 
-0

>  <r_i_glide_rewards>  (1) 
-0.97583136675219029

>  <r_lp_Energy>  (1) 
30.5136

>  <r_lp_tautomer_probability>  (1) 
0.99999999999977596

>  <s_epik_cmdline>  (1) 
J2VwaWtfcHl0aG9uJywgJy1waHQnLCAnMS4wJywgJy1waCcsICc3LjQnLCAnLXRuJywgJzgnLCAnLW1hJywgJzUwMCcsICctaW1hZScsICc8aW5maWxlLm1hZT4nLCAnLW9tYWUnLCAnPG91dGZpbGUubWFlPic=

>  <s_epik_input>  (1) 
Q2xbQ0BIXTFbQ0gyXVtDSDJdW0NASF0oQ2wpW0NIMl1bQ0BIXTFbQ0hdKFtDSDJdW0NIMl0yKVtDSDJdW0NIMl1OMmMzc2Mobm4zKS1jNFtjSF1jKFtPSF0pYyhbT0hdKVtjSF1bY0hdNA==

>  <s_glide_docking_method>  (1) 
confgen

>  <s_i_glide_gridfile>  (1) 
gpcr_drd2_6luq_protein_autoprepared_prepared

>  <s_lp_Force_Field>  (1) 
S-OPLS

>  <s_lp_Variant>  (1) 
DiffSBDD_31_num_sample_100-1

>  <s_m_source_file>  (1) 
generated__ligand_DiffSBDD_2026-05-06_prepared.sdf

>  <GenAI_Model>  (1) 
DiffSBDD

>  <Protein>  (1) 
generic_title2

$$$$
DiffSBDD_37_num_sample_100
     RDKit          3D

  0  0  0  0  0  0  0  0  0  0999 V3000
M  V30 BEGIN CTAB
M  V30 COUNTS 41 43 0 0 1
M  V30 BEGIN ATOM
M  V30 1 C 10.249126 6.569304 -6.148740 0
M  V30 2 O 10.676436 8.169302 -10.691666 0
M  V30 3 C 11.565379 8.546374 -6.556078 0
M  V30 4 C 9.937023 6.487985 -7.526670 0
M  V30 5 C 7.324248 4.205769 -14.256835 0 CFG=1
M  V30 6 O 8.234815 2.284491 -13.091669 0
M  V30 7 C 8.795201 6.440470 -11.533891 0
M  V30 8 C 7.883355 3.798483 -15.630641 0
M  V30 9 O 11.434840 7.722513 -4.374681 0
M  V30 10 C 6.595688 6.176988 -12.812266 0
M  V30 11 O 9.336150 6.407333 -10.213303 0
M  V30 12 C 10.469370 7.453586 -8.422959 0
M  V30 13 S 12.545199 9.769302 -5.891668 0
M  V30 14 C 7.662556 4.169301 -11.727330 0
M  V30 15 C 8.205780 3.699747 -13.091656 0 CFG=2
M  V30 16 C 11.286433 8.492520 -7.924516 0
M  V30 17 C 7.461775 5.685165 -11.635471 0 CFG=1
M  V30 18 C 11.075281 7.608507 -5.687258 0
M  V30 19 C 7.155538 5.735748 -14.174837 0
M  V30 20 C 10.186652 7.395465 -9.879572 0
M  V30 21 C 12.175521 8.969302 -4.263532 0
M  V30 22 H 9.861818 5.837435 -5.457862 0
M  V30 23 H 9.305605 5.690045 -7.890391 0
M  V30 24 H 6.334541 3.756571 -14.155666 0
M  V30 25 H 8.812483 1.986499 -12.400738 0
M  V30 26 H 9.527637 6.059720 -12.245606 0
M  V30 27 H 8.603381 7.478294 -11.812169 0
M  V30 28 H 8.883193 4.203679 -15.788874 0
M  V30 29 H 7.947625 2.714377 -15.727505 0
M  V30 30 H 7.245897 4.158990 -16.438286 0
M  V30 31 H 5.584387 5.783862 -12.699688 0
M  V30 32 H 6.497438 7.262721 -12.778848 0
M  V30 33 H 6.699986 3.690225 -11.540082 0
M  V30 34 H 8.331722 3.843086 -10.930641 0
M  V30 35 H 9.228763 4.056225 -13.222881 0
M  V30 36 H 11.694383 9.238252 -8.592703 0
M  V30 37 H 6.903589 5.893102 -10.721148 0
M  V30 38 H 6.488149 6.078658 -14.966186 0
M  V30 39 H 8.115013 6.222580 -14.352434 0
M  V30 40 H 13.108133 8.787066 -3.730187 0
M  V30 41 H 11.593985 9.664938 -3.657630 0
M  V30 END ATOM
M  V30 BEGIN BOND
M  V30 1 2 4 1
M  V30 2 1 8 5
M  V30 3 1 11 7
M  V30 4 1 12 4
M  V30 5 1 13 3
M  V30 6 1 15 5
M  V30 7 1 15 6
M  V30 8 1 15 14
M  V30 9 1 16 3
M  V30 10 2 16 12
M  V30 11 1 17 7
M  V30 12 1 17 10
M  V30 13 1 17 14
M  V30 14 1 18 1
M  V30 15 2 18 3
M  V30 16 1 18 9
M  V30 17 1 19 5
M  V30 18 1 19 10
M  V30 19 2 20 2
M  V30 20 1 20 11
M  V30 21 1 20 12
M  V30 22 1 21 9
M  V30 23 1 21 13
M  V30 24 1 22 1
M  V30 25 1 23 4
M  V30 26 1 5 24 CFG=1
M  V30 27 1 25 6
M  V30 28 1 26 7
M  V30 29 1 27 7
M  V30 30 1 28 8
M  V30 31 1 29 8
M  V30 32 1 30 8
M  V30 33 1 31 10
M  V30 34 1 32 10
M  V30 35 1 33 14
M  V30 36 1 34 14
M  V30 37 1 15 35 CFG=3
M  V30 38 1 36 16
M  V30 39 1 17 37 CFG=1
M  V30 40 1 38 19
M  V30 41 1 39 19
M  V30 42 1 40 21
M  V30 43 1 41 21
M  V30 END BOND
M  V30 END CTAB
M  END
>  <i_epik_Tot_Q>  (1) 
0

>  <i_epik_Tot_abs_Q>  (1) 
0

>  <i_i_glide_confnum>  (1) 
33

>  <i_i_glide_lignum>  (1) 
67

>  <i_i_glide_posenum>  (1) 
257

>  <i_i_glide_rotatable_bonds>  (1) 
5

>  <i_lp_mmshare_version>  (1) 
72125

>  <i_m_source_file_index>  (1) 
38

>  <i_f3d_flags>  (1) 
0

>  <num_sample>  (1) 
100

>  <b_lp_Chiralities_Consistent>  (1) 
1

>  <r_epik_Charging_Adjusted_Penalty>  (1) 
0

>  <r_epik_Ionization_Penalty>  (1) 
3.9594371976728403e-07

>  <r_epik_Ionization_Penalty_Charging>  (1) 
0

>  <r_epik_Ionization_Penalty_Neutral>  (1) 
3.9594371976728403e-07

>  <r_epik_State_Penalty>  (1) 
-0

>  <r_glide_ring_energy>  (1) 
0.19167433941693801

>  <r_i_docking_score>  (1) 
-6.0444417663899639

>  <r_i_glide_ecoul>  (1) 
-3.9074432389675318

>  <r_i_glide_eff_state_penalty>  (1) 
-0

>  <r_i_glide_einternal>  (1) 
2.9446134776896686

>  <r_i_glide_emodel>  (1) 
-49.886419499845054

>  <r_i_glide_emodel_strain>  (1) 
0.011358890055277016

>  <r_i_glide_energy>  (1) 
-37.598826969843707

>  <r_i_glide_erotb>  (1) 
0.58356430474883259

>  <r_i_glide_esite>  (1) 
-0.06466012552394125

>  <r_i_glide_evdw>  (1) 
-33.691383730876176

>  <r_i_glide_gscore>  (1) 
-6.0444417663899639

>  <r_i_glide_gscore_strain>  (1) 
0

>  <r_i_glide_hbond>  (1) 
-0.090023941436875629

>  <r_i_glide_ligand_efficiency>  (1) 
-0.287830560304284

>  <r_i_glide_ligand_efficiency_ln>  (1) 
-1.4944760127952843

>  <r_i_glide_ligand_efficiency_sa>  (1) 
-0.79410269152481328

>  <r_i_glide_lipo>  (1) 
-2.1000515579088588

>  <r_i_glide_metal>  (1) 
-0

>  <r_i_glide_rewards>  (1) 
-2.1025847738801828

>  <r_lp_Energy>  (1) 
12.800905

>  <r_lp_tautomer_probability>  (1) 
1

>  <s_epik_Chemistry_Notes>  (1) 
This compound has an ester and may undergo hydrolysis at high or low pH. This compound contains an acetal/aminal-like group ( X-CH(R)-Y where X, Y are N, S, or O) that may be acid/base labile, releasing an aldehyde.

>  <s_epik_cmdline>  (1) 
J2VwaWtfcHl0aG9uJywgJy1waHQnLCAnMS4wJywgJy1waCcsICc3LjQnLCAnLXRuJywgJzgnLCAnLW1hJywgJzUwMCcsICctaW1hZScsICc8aW5maWxlLm1hZT4nLCAnLW9tYWUnLCAnPG91dGZpbGUubWFlPic=

>  <s_epik_input>  (1) 
UzFbQ0gyXU9jKGMxMilbY0hdW2NIXWMoW2NIXTIpQyg9TylPW0NIMl1bQ0BASF0oW0NIMl1bQ0gyXTMpW0NIMl1bQ0BASF0oW09IXSlbQ0BASF0zW0NIM10=

>  <s_glide_docking_method>  (1) 
confgen

>  <s_i_glide_gridfile>  (1) 
gpcr_drd2_6luq_protein_autoprepared_prepared

>  <s_lp_Force_Field>  (1) 
S-OPLS

>  <s_lp_Variant>  (1) 
DiffSBDD_37_num_sample_100-1

>  <s_m_source_file>  (1) 
generated__ligand_DiffSBDD_2026-05-06_prepared.sdf

>  <GenAI_Model>  (1) 
DiffSBDD

>  <Protein>  (1) 
generic_title2

$$$$
DiffSBDD_27_num_sample_100
     RDKit          3D

  0  0  0  0  0  0  0  0  0  0999 V3000
M  V30 BEGIN CTAB
M  V30 COUNTS 57 57 0 0 1
M  V30 BEGIN ATOM
M  V30 1 C 12.204183 8.564650 -3.919940 0 CFG=2
M  V30 2 C 9.428312 6.265779 -10.377156 0
M  V30 3 N 11.452935 9.769303 -3.669167 0
M  V30 4 C 6.536338 1.833605 -12.892174 0
M  V30 5 C 11.464672 6.537887 -2.980677 0
M  V30 6 C 11.018065 7.163434 -8.648645 0
M  V30 7 N 7.105351 5.769301 -10.869983 0 CHG=1
M  V30 8 C 9.326860 4.487668 -13.018480 0
M  V30 9 C 7.325115 2.949638 -13.599843 0
M  V30 10 C 6.367322 4.121905 -13.878803 0
M  V30 11 C 8.328740 6.389799 -11.398348 0 CFG=2
M  V30 12 C 8.748270 5.911868 -12.805487 0
M  V30 13 C 11.438581 7.719798 -4.977851 0
M  V30 14 C 9.532503 6.380641 -6.843198 0
M  V30 15 C 12.234839 7.691816 -2.613852 0
M  V30 16 O 12.647714 8.023368 -1.506520 0
M  V30 17 C 11.386878 7.994914 -6.309286 0
M  V30 18 N 8.440990 3.337979 -12.690599 0 CHG=1
M  V30 19 N 10.644552 7.239486 -7.235919 0
M  V30 20 C 11.054508 6.567754 -4.222450 0
M  V30 21 C 12.150473 9.173094 -6.911806 0
M  V30 22 C 7.855707 2.391863 -14.932982 0
M  V30 23 C 9.903831 7.295256 -9.658016 0
M  V30 24 H 13.212685 8.806017 -4.256147 0
M  V30 25 H 9.840245 5.279978 -10.233827 0
M  V30 26 H 10.518618 9.559600 -3.359423 0
M  V30 27 H 11.875838 10.296758 -2.916969 0
M  V30 28 H 7.165828 0.969184 -12.675919 0
M  V30 29 H 6.117455 2.182520 -11.948203 0
M  V30 30 H 5.705229 1.478226 -13.502928 0
M  V30 31 H 11.261728 5.744877 -2.281579 0
M  V30 32 H 11.823158 7.834572 -8.939227 0
M  V30 33 H 11.434833 6.169308 -8.760603 0
M  V30 34 H 6.839398 6.414997 -10.115359 0
M  V30 35 H 6.362949 5.776776 -11.552632 0
M  V30 36 H 9.675054 4.403855 -14.046220 0
M  V30 37 H 10.220374 4.379873 -12.402403 0
M  V30 38 H 6.767549 4.812999 -14.619174 0
M  V30 39 H 5.434846 3.769298 -14.291667 0
M  V30 40 H 6.094419 4.667951 -12.980872 0
M  V30 41 H 8.088863 7.450869 -11.491676 0
M  V30 42 H 7.966692 6.153384 -13.518719 0
M  V30 43 H 9.562918 6.574147 -13.091669 0
M  V30 44 H 9.044227 6.743921 -5.939775 0
M  V30 45 H 8.748991 6.346176 -7.598979 0
M  V30 46 H 9.889098 5.369301 -6.691737 0
M  V30 47 H 9.040612 2.523987 -12.632944 0
M  V30 48 H 10.471298 5.769335 -4.639981 0
M  V30 49 H 13.148655 8.873521 -7.228818 0
M  V30 50 H 11.627262 9.602577 -7.764934 0
M  V30 51 H 12.261942 9.988597 -6.198792 0
M  V30 52 H 8.507272 1.530389 -14.779700 0
M  V30 53 H 7.035106 2.060981 -15.571438 0
M  V30 54 H 8.412294 3.138930 -15.498865 0
M  V30 55 H 9.486483 8.283054 -9.792222 0
M  V30 56 H 8.065562 3.473177 -11.767124 0
M  V30 57 H 7.252681 4.857684 -10.469476 0
M  V30 END ATOM
M  V30 BEGIN BOND
M  V30 1 1 3 1
M  V30 2 1 9 4
M  V30 3 1 10 9
M  V30 4 1 11 2
M  V30 5 1 11 7
M  V30 6 1 12 8
M  V30 7 1 12 11
M  V30 8 1 13 1
M  V30 9 1 15 1
M  V30 10 1 15 5
M  V30 11 2 16 15
M  V30 12 2 17 13
M  V30 13 1 18 8
M  V30 14 1 18 9
M  V30 15 1 19 6
M  V30 16 1 19 14
M  V30 17 1 19 17
M  V30 18 2 20 5
M  V30 19 1 20 13
M  V30 20 1 21 17
M  V30 21 1 22 9
M  V30 22 2 23 2
M  V30 23 1 23 6
M  V30 24 1 1 24 CFG=3
M  V30 25 1 25 2
M  V30 26 1 26 3
M  V30 27 1 27 3
M  V30 28 1 28 4
M  V30 29 1 29 4
M  V30 30 1 30 4
M  V30 31 1 31 5
M  V30 32 1 32 6
M  V30 33 1 33 6
M  V30 34 1 34 7
M  V30 35 1 35 7
M  V30 36 1 36 8
M  V30 37 1 37 8
M  V30 38 1 38 10
M  V30 39 1 39 10
M  V30 40 1 40 10
M  V30 41 1 11 41 CFG=3
M  V30 42 1 42 12
M  V30 43 1 43 12
M  V30 44 1 44 14
M  V30 45 1 45 14
M  V30 46 1 46 14
M  V30 47 1 47 18
M  V30 48 1 48 20
M  V30 49 1 49 21
M  V30 50 1 50 21
M  V30 51 1 51 21
M  V30 52 1 52 22
M  V30 53 1 53 22
M  V30 54 1 54 22
M  V30 55 1 55 23
M  V30 56 1 56 18
M  V30 57 1 57 7
M  V30 END BOND
M  V30 END CTAB
M  END
>  <i_epik_Tot_Q>  (1) 
2

>  <i_epik_Tot_abs_Q>  (1) 
2

>  <i_i_glide_confnum>  (1) 
296

>  <i_i_glide_lignum>  (1) 
43

>  <i_i_glide_posenum>  (1) 
232

>  <i_i_glide_rotatable_bonds>  (1) 
8

>  <i_lp_mmshare_version>  (1) 
72125

>  <i_m_source_file_index>  (1) 
28

>  <i_f3d_flags>  (1) 
0

>  <num_sample>  (1) 
100

>  <b_lp_Chiralities_Consistent>  (1) 
1

>  <r_epik_Charging_Adjusted_Penalty>  (1) 
0.47954930221194114

>  <r_epik_Ionization_Penalty>  (1) 
0.082650424812652987

>  <r_epik_Ionization_Penalty_Charging>  (1) 
0.068869463259337155

>  <r_epik_Ionization_Penalty_Neutral>  (1) 
0.013780961553315832

>  <r_epik_State_Penalty>  (1) 
0.41067983895260396

>  <r_glide_ring_energy>  (1) 
0

>  <r_i_docking_score>  (1) 
-6.0422136176734371

>  <r_i_glide_ecoul>  (1) 
-10.794556088914835

>  <r_i_glide_eff_state_penalty>  (1) 
0.41067983895260396

>  <r_i_glide_einternal>  (1) 
6.5033729621337368

>  <r_i_glide_emodel>  (1) 
-55.737182854348887

>  <r_i_glide_emodel_strain>  (1) 
3.4530450205798005

>  <r_i_glide_energy>  (1) 
-40.033138331523929

>  <r_i_glide_erotb>  (1) 
1.2586724494590871

>  <r_i_glide_esite>  (1) 
-0.10000000000000001

>  <r_i_glide_evdw>  (1) 
-29.238582242609091

>  <r_i_glide_gscore>  (1) 
-6.4528934566260414

>  <r_i_glide_gscore_strain>  (1) 
0

>  <r_i_glide_hbond>  (1) 
-0.20000000000000001

>  <r_i_glide_ligand_efficiency>  (1) 
-0.26270493989884508

>  <r_i_glide_ligand_efficiency_ln>  (1) 
-1.4610620405174215

>  <r_i_glide_ligand_efficiency_sa>  (1) 
-0.74709790402221565

>  <r_i_glide_lipo>  (1) 
-1.919150913035188

>  <r_i_glide_metal>  (1) 
-0

>  <r_i_glide_rewards>  (1) 
-2.411302467582261

>  <r_lp_Energy>  (1) 
29.109323

>  <r_lp_tautomer_probability>  (1) 
0.5

>  <s_epik_cmdline>  (1) 
J2VwaWtfcHl0aG9uJywgJy1waHQnLCAnMS4wJywgJy1waCcsICc3LjQnLCAnLXRuJywgJzgnLCAnLW1hJywgJzUwMCcsICctaW1hZScsICc8aW5maWxlLm1hZT4nLCAnLW9tYWUnLCAnPG91dGZpbGUubWFlPic=

>  <s_epik_input>  (1) 
Tz1DMVtDSF09W0NIXUMoXFtDQEhdMVtOSDJdKT1DKFtDSDNdKS9OKFtDSDNdKVtDSDJdXFtDSF09W0NIXVxbQ0BIXShbTkgyXSlbQ0gyXVtDSDJdW05IXUMoW0NIM10pKFtDSDNdKVtDSDNd

>  <s_glide_docking_method>  (1) 
confgen

>  <s_i_glide_gridfile>  (1) 
gpcr_drd2_6luq_protein_autoprepared_prepared

>  <s_lp_Force_Field>  (1) 
S-OPLS

>  <s_lp_Variant>  (1) 
DiffSBDD_27_num_sample_100-1

>  <s_m_source_file>  (1) 
generated__ligand_DiffSBDD_2026-05-06_prepared.sdf

>  <GenAI_Model>  (1) 
DiffSBDD

>  <Protein>  (1) 
generic_title2

$$$$
DiffSBDD_74_num_sample_100
     RDKit          3D

  0  0  0  0  0  0  0  0  0  0999 V3000
M  V30 BEGIN CTAB
M  V30 COUNTS 50 51 0 0 1
M  V30 BEGIN ATOM
M  V30 1 C 10.316363 8.055014 -9.490590 0
M  V30 2 C 9.686435 4.969307 -15.761153 0
M  V30 3 F 8.234133 7.450235 -12.060363 0
M  V30 4 C 11.329254 7.830438 -6.686022 0 CFG=1
M  V30 5 O 6.234837 4.359293 -14.606455 0
M  V30 6 C 9.091882 5.032037 -13.298837 0
M  V30 7 C 9.328826 5.825974 -8.852798 0
M  V30 8 C 9.877736 7.493335 -7.088097 0 CFG=1
M  V30 9 F 11.180043 7.401833 -4.376707 0
M  V30 10 C 11.772190 8.409477 -9.160965 0
M  V30 11 F 12.552303 7.369493 -9.444687 0
M  V30 12 F 9.105542 8.569305 -6.930682 0
M  V30 13 C 11.947117 8.818353 -7.688813 0
M  V30 14 C 8.046174 5.080234 -12.161980 0 CFG=2
M  V30 15 C 8.581225 4.682171 -14.721032 0 CFG=1
M  V30 16 O 7.075933 5.316710 -16.518783 0
M  V30 17 C 11.393715 8.387509 -5.247429 0
M  V30 18 C 7.183822 5.258370 -15.112805 0
M  V30 19 O 8.894882 4.969264 -8.084357 0
M  V30 20 C 6.306224 6.748883 -13.145961 0
M  V30 21 F 12.158982 9.424338 -9.927539 0
M  V30 22 N 9.834857 7.083560 -8.491528 0
M  V30 23 C 7.343010 6.455808 -12.061028 0 CFG=2
M  V30 24 C 6.845619 6.677300 -14.588586 0
M  V30 25 O 9.376134 5.678259 -10.190702 0
M  V30 26 F 12.562888 8.969321 -4.969117 0
M  V30 27 C 8.627758 4.642942 -10.805009 0
M  V30 28 H 10.261238 7.759281 -10.537445 0
M  V30 29 H 9.689700 8.945071 -9.415502 0
M  V30 30 H 9.803758 6.035809 -15.943151 0
M  V30 31 H 10.648884 4.584475 -15.428665 0
M  V30 32 H 9.480878 4.485828 -16.716684 0
M  V30 33 H 11.909199 6.907937 -6.731227 0
M  V30 34 H 6.439056 3.500640 -14.942138 0
M  V30 35 H 9.652555 5.966108 -13.321366 0
M  V30 36 H 9.834863 4.276922 -13.044323 0
M  V30 37 H 9.466750 6.736977 -6.416375 0
M  V30 38 H 13.005654 8.969284 -7.474233 0
M  V30 39 H 11.460086 9.772895 -7.533615 0
M  V30 40 H 7.294346 4.319221 -12.361001 0
M  V30 41 H 8.482588 3.595416 -14.737834 0
M  V30 42 H 7.792363 5.836543 -16.848753 0
M  V30 43 H 10.634796 9.151211 -5.078481 0
M  V30 44 H 5.916075 7.750881 -12.968670 0
M  V30 45 H 5.442569 6.096230 -13.017917 0
M  V30 46 H 6.835089 6.521332 -11.097726 0
M  V30 47 H 7.706876 7.336824 -14.691667 0
M  V30 48 H 6.066962 7.106916 -15.221815 0
M  V30 49 H 7.788875 4.359959 -10.167365 0
M  V30 50 H 9.250653 3.754718 -10.909237 0
M  V30 END ATOM
M  V30 BEGIN BOND
M  V30 1 1 8 4
M  V30 2 1 10 1
M  V30 3 1 11 10
M  V30 4 1 12 8
M  V30 5 1 13 4
M  V30 6 1 13 10
M  V30 7 1 14 6
M  V30 8 1 15 2
M  V30 9 1 15 6
M  V30 10 1 17 4
M  V30 11 1 17 9
M  V30 12 1 18 5
M  V30 13 1 18 15
M  V30 14 1 18 16
M  V30 15 2 19 7
M  V30 16 1 21 10
M  V30 17 1 22 1
M  V30 18 1 22 7
M  V30 19 1 22 8
M  V30 20 1 23 3
M  V30 21 1 23 14
M  V30 22 1 23 20
M  V30 23 1 24 18
M  V30 24 1 24 20
M  V30 25 1 25 7
M  V30 26 1 26 17
M  V30 27 1 27 14
M  V30 28 1 27 25
M  V30 29 1 28 1
M  V30 30 1 29 1
M  V30 31 1 30 2
M  V30 32 1 31 2
M  V30 33 1 32 2
M  V30 34 1 4 33 CFG=1
M  V30 35 1 34 5
M  V30 36 1 35 6
M  V30 37 1 36 6
M  V30 38 1 8 37 CFG=1
M  V30 39 1 38 13
M  V30 40 1 39 13
M  V30 41 1 14 40 CFG=3
M  V30 42 1 15 41 CFG=1
M  V30 43 1 42 16
M  V30 44 1 43 17
M  V30 45 1 44 20
M  V30 46 1 45 20
M  V30 47 1 23 46 CFG=1
M  V30 48 1 47 24
M  V30 49 1 48 24
M  V30 50 1 49 27
M  V30 51 1 50 27
M  V30 END BOND
M  V30 END CTAB
M  END
>  <i_epik_Tot_Q>  (1) 
0

>  <i_epik_Tot_abs_Q>  (1) 
0

>  <i_i_glide_confnum>  (1) 
21

>  <i_i_glide_lignum>  (1) 
148

>  <i_i_glide_posenum>  (1) 
71

>  <i_i_glide_rotatable_bonds>  (1) 
7

>  <i_lp_mmshare_version>  (1) 
72125

>  <i_m_source_file_index>  (1) 
75

>  <i_f3d_flags>  (1) 
0

>  <num_sample>  (1) 
100

>  <b_lp_Chiralities_Consistent>  (1) 
1

>  <r_epik_Charging_Adjusted_Penalty>  (1) 
0

>  <r_epik_Ionization_Penalty>  (1) 
3.1339630279600532e-07

>  <r_epik_Ionization_Penalty_Charging>  (1) 
0

>  <r_epik_Ionization_Penalty_Neutral>  (1) 
3.1339630279600532e-07

>  <r_epik_State_Penalty>  (1) 
-0

>  <r_glide_ring_energy>  (1) 
0

>  <r_i_docking_score>  (1) 
-6.0409752045236962

>  <r_i_glide_ecoul>  (1) 
-2.2944113217842146

>  <r_i_glide_eff_state_penalty>  (1) 
-0

>  <r_i_glide_einternal>  (1) 
5.3697358296214013

>  <r_i_glide_emodel>  (1) 
-44.738466873825743

>  <r_i_glide_emodel_strain>  (1) 
0.5077342053543461

>  <r_i_glide_energy>  (1) 
-36.459351016237676

>  <r_i_glide_erotb>  (1) 
0.47417469053287281

>  <r_i_glide_esite>  (1) 
-0.30967190130796174

>  <r_i_glide_evdw>  (1) 
-34.164939694453459

>  <r_i_glide_gscore>  (1) 
-6.0409752045236962

>  <r_i_glide_gscore_strain>  (1) 
0

>  <r_i_glide_hbond>  (1) 
0

>  <r_i_glide_ligand_efficiency>  (1) 
-0.22373982238976653

>  <r_i_glide_ligand_efficiency_ln>  (1) 
-1.4062394343532338

>  <r_i_glide_ligand_efficiency_sa>  (1) 
-0.6712194671692997

>  <r_i_glide_lipo>  (1) 
-1.7113784591916894

>  <r_i_glide_metal>  (1) 
-0

>  <r_i_glide_rewards>  (1) 
-2.4416908515666131

>  <r_lp_Energy>  (1) 
22.804843999999999

>  <r_lp_tautomer_probability>  (1) 
1

>  <s_epik_Chemistry_Notes>  (1) 
This compound has an ester and may undergo hydrolysis at high or low pH.

>  <s_epik_cmdline>  (1) 
J2VwaWtfcHl0aG9uJywgJy1waHQnLCAnMS4wJywgJy1waCcsICc3LjQnLCAnLXRuJywgJzgnLCAnLW1hJywgJzUwMCcsICctaW1hZScsICc8aW5maWxlLm1hZT4nLCAnLW9tYWUnLCAnPG91dGZpbGUubWFlPic=

>  <s_epik_input>  (1) 
RltDSF0oRilbQ0BIXShbQ0gyXTEpW0NAQEhdKEYpTihbQ0gyXUMxKEYpRilDKD1PKU9bQ0gyXVtDQEBIXShbQ0BASF0oRilbQ0gyXVtDSDJdMilbQ0gyXVtDQEhdKFtDSDNdKUMyKFtPSF0pW09IXQ==

>  <s_glide_docking_method>  (1) 
confgen

>  <s_i_glide_gridfile>  (1) 
gpcr_drd2_6luq_protein_autoprepared_prepared

>  <s_lp_Force_Field>  (1) 
S-OPLS

>  <s_lp_Variant>  (1) 
DiffSBDD_74_num_sample_100-1

>  <s_m_source_file>  (1) 
generated__ligand_DiffSBDD_2026-05-06_prepared.sdf

>  <GenAI_Model>  (1) 
DiffSBDD

>  <Protein>  (1) 
generic_title2

$$$$
DiffSBDD_67_num_sample_100
     RDKit          3D

  0  0  0  0  0  0  0  0  0  0999 V3000
M  V30 BEGIN CTAB
M  V30 COUNTS 79 83 0 0 1
M  V30 BEGIN ATOM
M  V30 1 C 7.257780 5.181835 -17.129636 0 CFG=2
M  V30 2 C 5.172532 6.149293 -18.335264 0 CFG=1
M  V30 3 C 4.268055 7.369316 -18.100540 0
M  V30 4 C 5.179636 5.684003 -19.816685 0 CFG=1
M  V30 5 C 8.504070 6.603733 -13.091664 0
M  V30 6 C 6.907150 5.372311 -14.630457 0
M  V30 7 C 11.357424 8.929813 -7.177957 0
M  V30 8 C 10.992977 6.642337 -6.425476 0
M  V30 9 C 7.512484 6.156265 -20.852451 0 CFG=2
M  V30 10 C 11.945710 7.753976 -9.884276 0
M  V30 11 C 8.638727 7.393098 -11.775744 0
M  V30 12 C 11.528062 9.333230 -5.849974 0
M  V30 13 C 9.434843 7.305103 -9.375598 0
M  V30 14 O 11.652479 7.765795 -11.091660 0 CHG=-1
M  V30 15 F 11.066676 6.169263 -4.084713 0
M  V30 16 C 8.363457 4.222735 -11.266790 0
M  V30 17 O 13.017135 8.169299 -9.391201 0
M  V30 18 C 6.033432 6.592897 -20.742101 0
M  V30 19 C 7.913263 5.176898 -19.733299 0 CFG=2
M  V30 20 C 11.093266 7.581580 -7.474981 0
M  V30 21 C 7.063561 3.901311 -19.884157 0
M  V30 22 N 8.023494 4.211397 -12.687339 0
M  V30 23 C 9.451353 5.202068 -10.831650 0
M  V30 24 N 8.939815 6.565675 -10.583538 0 CFG=2 CHG=1
M  V30 25 C 5.552269 4.189147 -19.969836 0
M  V30 26 C 7.445671 5.478996 -13.167506 0 CFG=1
M  V30 27 C 8.962165 4.139960 -15.669441 0
M  V30 28 C 10.905598 7.130252 -8.921350 0 CFG=2
M  V30 29 O 8.367913 7.281370 -20.880232 0
M  V30 30 C 7.845770 5.835964 -18.355890 0 CFG=1
M  V30 31 C 6.555275 6.372664 -17.743687 0 CFG=2
M  V30 32 O 11.782766 10.621410 -5.574671 0
M  V30 33 C 11.434787 8.402818 -4.807204 0
M  V30 34 C 7.144154 3.054802 -12.878867 0
M  V30 35 C 11.162725 7.058935 -5.091707 0
M  V30 36 C 7.945460 5.271772 -15.786032 0 CFG=1
M  V30 37 H 6.741438 4.234912 -17.257181 0
M  V30 38 H 4.715093 5.369428 -17.731891 0
M  V30 39 H 4.550790 8.205509 -18.736253 0
M  V30 40 H 3.221457 7.135782 -18.291424 0
M  V30 41 H 4.322699 7.707967 -17.065673 0
M  V30 42 H 4.150647 5.763198 -20.159476 0
M  V30 43 H 9.469246 6.200195 -13.406229 0
M  V30 44 H 8.234650 7.357129 -13.830356 0
M  V30 45 H 6.160176 4.587646 -14.729623 0
M  V30 46 H 6.327967 6.279099 -14.808857 0
M  V30 47 H 11.435034 9.655178 -7.974408 0
M  V30 48 H 10.785915 5.607149 -6.644650 0
M  V30 49 H 11.801961 10.806046 -4.649957 0
M  V30 50 H 7.646775 5.644374 -21.806623 0
M  V30 51 H 7.709475 7.927536 -11.578356 0
M  V30 52 H 9.394773 8.164865 -11.909681 0
M  V30 53 H 8.820575 6.926782 -8.557094 0
M  V30 54 H 9.188360 8.365637 -9.453327 0
M  V30 55 H 8.832474 3.259813 -11.091694 0
M  V30 56 H 7.477199 4.292990 -10.633005 0
M  V30 57 H 5.600800 6.591172 -21.742832 0
M  V30 58 H 5.967210 7.627153 -20.405125 0
M  V30 59 H 8.953915 4.886940 -19.883718 0
M  V30 60 H 7.286637 3.182397 -19.096140 0
M  V30 61 H 7.362421 3.395912 -20.803061 0
M  V30 62 H 10.259234 5.208776 -11.554572 0
M  V30 63 H 9.834848 4.786549 -9.902564 0
M  V30 64 H 5.034139 3.585513 -19.225566 0
M  V30 65 H 5.185923 3.836510 -20.935191 0
M  V30 66 H 6.598886 5.733358 -12.527614 0
M  V30 67 H 8.479491 3.166862 -15.583737 0
M  V30 68 H 9.617837 4.110185 -16.540058 0
M  V30 69 H 9.598333 4.293768 -14.801674 0
M  V30 70 H 11.119053 6.077093 -8.879826 0
M  V30 71 H 8.181017 7.788070 -21.656639 0
M  V30 72 H 8.708794 6.477424 -18.191358 0
M  V30 73 H 6.642787 7.302474 -17.185166 0
M  V30 74 H 11.567693 8.720899 -3.783632 0
M  V30 75 H 6.950888 2.845102 -13.928316 0
M  V30 76 H 7.608829 2.146212 -12.495513 0
M  V30 77 H 6.187705 3.191204 -12.371917 0
M  V30 78 H 8.545216 6.169272 -15.789150 0
M  V30 79 H 7.992296 6.398231 -10.263188 0
M  V30 END ATOM
M  V30 BEGIN BOND
M  V30 1 1 3 2
M  V30 2 1 4 2
M  V30 3 1 11 5
M  V30 4 2 12 7
M  V30 5 1 14 10
M  V30 6 2 17 10
M  V30 7 1 18 4
M  V30 8 1 18 9
M  V30 9 1 19 9
M  V30 10 1 20 7
M  V30 11 2 20 8
M  V30 12 1 21 19
M  V30 13 1 22 16
M  V30 14 1 23 16
M  V30 15 1 24 11
M  V30 16 1 24 13
M  V30 17 1 24 23
M  V30 18 1 25 4
M  V30 19 1 25 21
M  V30 20 1 26 5
M  V30 21 1 26 6
M  V30 22 1 26 22
M  V30 23 1 28 10
M  V30 24 1 28 13
M  V30 25 1 28 20
M  V30 26 1 29 9
M  V30 27 1 30 1
M  V30 28 1 30 19
M  V30 29 1 31 1
M  V30 30 1 31 2
M  V30 31 1 31 30
M  V30 32 1 32 12
M  V30 33 1 33 12
M  V30 34 1 34 22
M  V30 35 1 35 8
M  V30 36 1 35 15
M  V30 37 2 35 33
M  V30 38 1 36 1
M  V30 39 1 36 6
M  V30 40 1 36 27
M  V30 41 1 1 37 CFG=3
M  V30 42 1 2 38 CFG=1
M  V30 43 1 39 3
M  V30 44 1 40 3
M  V30 45 1 41 3
M  V30 46 1 4 42 CFG=3
M  V30 47 1 43 5
M  V30 48 1 44 5
M  V30 49 1 45 6
M  V30 50 1 46 6
M  V30 51 1 47 7
M  V30 52 1 48 8
M  V30 53 1 49 32
M  V30 54 1 9 50 CFG=3
M  V30 55 1 51 11
M  V30 56 1 52 11
M  V30 57 1 53 13
M  V30 58 1 54 13
M  V30 59 1 55 16
M  V30 60 1 56 16
M  V30 61 1 57 18
M  V30 62 1 58 18
M  V30 63 1 19 59 CFG=3
M  V30 64 1 60 21
M  V30 65 1 61 21
M  V30 66 1 62 23
M  V30 67 1 63 23
M  V30 68 1 64 25
M  V30 69 1 65 25
M  V30 70 1 26 66 CFG=1
M  V30 71 1 67 27
M  V30 72 1 68 27
M  V30 73 1 69 27
M  V30 74 1 28 70 CFG=1
M  V30 75 1 71 29
M  V30 76 1 30 72 CFG=1
M  V30 77 1 31 73 CFG=1
M  V30 78 1 74 33
M  V30 79 1 75 34
M  V30 80 1 76 34
M  V30 81 1 77 34
M  V30 82 1 36 78 CFG=3
M  V30 83 1 24 79 CFG=1
M  V30 END BOND
M  V30 END CTAB
M  END
>  <i_epik_Tot_Q>  (1) 
0

>  <i_epik_Tot_abs_Q>  (1) 
2

>  <i_i_glide_confnum>  (1) 
59

>  <i_i_glide_lignum>  (1) 
133

>  <i_i_glide_posenum>  (1) 
204

>  <i_i_glide_rotatable_bonds>  (1) 
9

>  <i_lp_mmshare_version>  (1) 
72125

>  <i_m_source_file_index>  (1) 
68

>  <i_f3d_flags>  (1) 
0

>  <num_sample>  (1) 
100

>  <b_lp_Chiralities_Consistent>  (1) 
1

>  <r_epik_Charging_Adjusted_Penalty>  (1) 
0.12241089881330544

>  <r_epik_Ionization_Penalty>  (1) 
0.01898901772236716

>  <r_epik_Ionization_Penalty_Charging>  (1) 
0.00080544074301080722

>  <r_epik_Ionization_Penalty_Neutral>  (1) 
0.018183576979356353

>  <r_epik_State_Penalty>  (1) 
0.12160545807029463

>  <r_glide_ring_energy>  (1) 
0.59912657946458703

>  <r_i_docking_score>  (1) 
-6.03612757484475

>  <r_i_glide_ecoul>  (1) 
-3.666070633394626

>  <r_i_glide_eff_state_penalty>  (1) 
0.12160545807029463

>  <r_i_glide_einternal>  (1) 
34.782580616208087

>  <r_i_glide_emodel>  (1) 
-18.155252635274838

>  <r_i_glide_emodel_strain>  (1) 
2.9448935699839183

>  <r_i_glide_energy>  (1) 
-33.013274647783305

>  <r_i_glide_erotb>  (1) 
0.48522832276191719

>  <r_i_glide_esite>  (1) 
-0.086706607969040103

>  <r_i_glide_evdw>  (1) 
-29.347204014388677

>  <r_i_glide_gscore>  (1) 
-6.1577330329150444

>  <r_i_glide_gscore_strain>  (1) 
0

>  <r_i_glide_hbond>  (1) 
-0.085597516546324526

>  <r_i_glide_ligand_efficiency>  (1) 
-0.16767021041235416

>  <r_i_glide_ligand_efficiency_ln>  (1) 
-1.316919959509959

>  <r_i_glide_ligand_efficiency_sa>  (1) 
-0.55363483658844792

>  <r_i_glide_lipo>  (1) 
-3.2247981385029041

>  <r_i_glide_metal>  (1) 
-0

>  <r_i_glide_rewards>  (1) 
-1.2285882969300648

>  <r_lp_Energy>  (1) 
56.91601

>  <r_lp_tautomer_probability>  (1) 
0.99999999999736477

>  <s_epik_cmdline>  (1) 
J2VwaWtfcHl0aG9uJywgJy1waHQnLCAnMS4wJywgJy1waCcsICc3LjQnLCAnLXRuJywgJzgnLCAnLW1hJywgJzUwMCcsICctaW1hZScsICc8aW5maWxlLm1hZT4nLCAnLW9tYWUnLCAnPG91dGZpbGUubWFlPic=

>  <s_epik_input>  (1) 
W0NIM11bQ0BASF0oW0NAQEhdMTIpW0NAQEhdM1tDQEhdKFtDQEhdKFtDQEBIXShbQ0gyXTEpW09IXSlbQ0gyXVtDSDJdMilbQ0BIXTNbQ0BIXShbQ0gzXSlbQ0gyXVtDQEBIXTRbQ0gyXVtDSDJdTihbQ0gyXVtDSDJdTjRbQ0gzXSlbQ0gyXVtDQEBIXShDKD1PKVtPSF0pQyg9W0NIXUM1PU8pW0NIMl1DKEYpPVtDSF01

>  <s_glide_docking_method>  (1) 
confgen

>  <s_i_glide_gridfile>  (1) 
gpcr_drd2_6luq_protein_autoprepared_prepared

>  <s_lp_Force_Field>  (1) 
S-OPLS

>  <s_lp_Variant>  (1) 
DiffSBDD_67_num_sample_100-1

>  <s_m_source_file>  (1) 
generated__ligand_DiffSBDD_2026-05-06_prepared.sdf

>  <GenAI_Model>  (1) 
DiffSBDD

>  <Protein>  (1) 
generic_title2

$$$$
DiffSBDD_34_num_sample_100
     RDKit          3D

  0  0  0  0  0  0  0  0  0  0999 V3000
M  V30 BEGIN CTAB
M  V30 COUNTS 60 63 0 0 1
M  V30 BEGIN ATOM
M  V30 1 N 7.448030 4.501327 -16.477098 0
M  V30 2 C 5.804027 4.500706 -13.013675 0 CFG=1
M  V30 3 C 10.637979 7.117407 -8.635878 0
M  V30 4 C 11.379562 8.291661 -8.600519 0
M  V30 5 C 6.975059 2.126932 -13.588528 0
M  V30 6 C 11.203290 6.330390 -2.571060 0
M  V30 7 C 6.584938 3.211241 -12.522184 0
M  V30 8 C 7.261707 2.880417 -14.839598 0
M  V30 9 C 11.501874 9.108628 -4.895955 0
M  V30 10 N 11.834910 8.394074 -3.786390 0
M  V30 11 C 9.266084 6.962891 -10.866653 0
M  V30 12 C 10.480732 7.143644 -6.189081 0
M  V30 13 C 10.187383 6.526102 -7.429683 0
M  V30 14 C 11.224176 8.349197 -6.174320 0
M  V30 15 O 12.155820 9.185709 -2.654170 0
M  V30 16 C 5.728322 5.629350 -11.970208 0
M  V30 17 C 12.151618 6.982185 -3.581994 0
M  V30 18 C 5.822368 1.117865 -13.746235 0
M  V30 19 C 11.666535 8.896817 -7.384501 0
M  V30 20 C 7.912032 3.313674 -16.853434 0
M  V30 21 C 6.991372 6.503518 -12.041713 0 CFG=2
M  V30 22 O 7.732174 5.369354 -10.000012 0
M  V30 23 C 7.015141 4.195281 -15.155244 0
M  V30 24 O 11.435063 10.336611 -4.898945 0
M  V30 25 S 7.433263 6.563336 -13.801268 0
M  V30 26 C 10.363197 6.467241 -9.957823 0
M  V30 27 C 8.215493 1.321760 -13.151710 0
M  V30 28 C 8.170208 5.958506 -11.210467 0 CFG=2
M  V30 29 N 7.836799 2.351508 -15.958006 0
M  V30 30 C 6.341780 5.198249 -14.289498 0 CFG=2
M  V30 31 O 9.269843 8.109271 -11.318484 0
M  V30 32 H 4.788717 4.166910 -13.236973 0
M  V30 33 H 11.737130 8.735877 -9.519520 0
M  V30 34 H 11.607023 5.369553 -2.270400 0
M  V30 35 H 10.214318 6.169320 -2.994767 0
M  V30 36 H 11.080145 6.919239 -1.660049 0
M  V30 37 H 7.511794 3.531441 -12.059368 0
M  V30 38 H 6.031244 2.753548 -11.704855 0
M  V30 39 H 10.115471 6.709798 -5.271614 0
M  V30 40 H 9.618605 5.608318 -7.456433 0
M  V30 41 H 12.324216 8.556068 -1.971140 0
M  V30 42 H 4.926209 6.301800 -12.250130 0
M  V30 43 H 5.475459 5.278544 -10.969717 0
M  V30 44 H 12.234728 6.393242 -4.491378 0
M  V30 45 H 13.149144 6.968734 -3.142680 0
M  V30 46 H 5.703305 0.507700 -12.849939 0
M  V30 47 H 5.981044 0.442247 -14.588980 0
M  V30 48 H 4.864282 1.603591 -13.891664 0
M  V30 49 H 12.234457 9.771790 -7.374103 0
M  V30 50 H 8.325784 3.148949 -17.838438 0
M  V30 51 H 6.738111 7.513001 -11.713477 0
M  V30 52 H 7.311822 6.071559 -9.505604 0
M  V30 53 H 8.141364 1.397912 -16.078502 0
M  V30 54 H 10.234838 5.398388 -9.790544 0
M  V30 55 H 11.256322 6.593600 -10.559113 0
M  V30 56 H 7.994670 0.689927 -12.295449 0
M  V30 57 H 9.048735 1.973100 -12.888705 0
M  V30 58 H 8.557367 0.650464 -13.940130 0
M  V30 59 H 8.669556 5.175816 -11.778173 0
M  V30 60 H 5.505926 5.650110 -14.823695 0
M  V30 END ATOM
M  V30 BEGIN BOND
M  V30 1 1 4 3
M  V30 2 1 7 2
M  V30 3 1 7 5
M  V30 4 1 8 5
M  V30 5 1 10 9
M  V30 6 2 13 3
M  V30 7 1 13 12
M  V30 8 1 14 9
M  V30 9 2 14 12
M  V30 10 1 15 10
M  V30 11 1 16 2
M  V30 12 1 17 6
M  V30 13 1 17 10
M  V30 14 1 18 5
M  V30 15 2 19 4
M  V30 16 1 19 14
M  V30 17 2 20 1
M  V30 18 1 21 16
M  V30 19 1 23 1
M  V30 20 2 23 8
M  V30 21 2 24 9
M  V30 22 1 25 21
M  V30 23 1 26 3
M  V30 24 1 26 11
M  V30 25 1 27 5
M  V30 26 1 28 11
M  V30 27 1 28 21
M  V30 28 1 28 22
M  V30 29 1 29 8
M  V30 30 1 29 20
M  V30 31 1 30 2
M  V30 32 1 30 23
M  V30 33 1 30 25
M  V30 34 2 31 11
M  V30 35 1 2 32 CFG=3
M  V30 36 1 33 4
M  V30 37 1 34 6
M  V30 38 1 35 6
M  V30 39 1 36 6
M  V30 40 1 37 7
M  V30 41 1 38 7
M  V30 42 1 39 12
M  V30 43 1 40 13
M  V30 44 1 41 15
M  V30 45 1 42 16
M  V30 46 1 43 16
M  V30 47 1 44 17
M  V30 48 1 45 17
M  V30 49 1 46 18
M  V30 50 1 47 18
M  V30 51 1 48 18
M  V30 52 1 49 19
M  V30 53 1 50 20
M  V30 54 1 21 51 CFG=1
M  V30 55 1 52 22
M  V30 56 1 53 29
M  V30 57 1 54 26
M  V30 58 1 55 26
M  V30 59 1 56 27
M  V30 60 1 57 27
M  V30 61 1 58 27
M  V30 62 1 28 59 CFG=3
M  V30 63 1 30 60 CFG=3
M  V30 END BOND
M  V30 END CTAB
M  END
>  <i_epik_Tot_Q>  (1) 
0

>  <i_epik_Tot_abs_Q>  (1) 
0

>  <i_i_glide_confnum>  (1) 
34

>  <i_i_glide_lignum>  (1) 
62

>  <i_i_glide_posenum>  (1) 
161

>  <i_i_glide_rotatable_bonds>  (1) 
9

>  <i_lp_mmshare_version>  (1) 
72125

>  <i_m_source_file_index>  (1) 
35

>  <i_f3d_flags>  (1) 
0

>  <num_sample>  (1) 
100

>  <b_lp_Chiralities_Consistent>  (1) 
1

>  <r_epik_Charging_Adjusted_Penalty>  (1) 
1.8315475384043096

>  <r_epik_Ionization_Penalty>  (1) 
0.90357436971334326

>  <r_epik_Ionization_Penalty_Charging>  (1) 
0.88195505593321366

>  <r_epik_Ionization_Penalty_Neutral>  (1) 
0.021619313780129622

>  <r_epik_State_Penalty>  (1) 
0.94959248247109596

>  <r_glide_ring_energy>  (1) 
0

>  <r_i_docking_score>  (1) 
-6.0315518911243817

>  <r_i_glide_ecoul>  (1) 
-4.8316661352447801

>  <r_i_glide_eff_state_penalty>  (1) 
0.94959248247109596

>  <r_i_glide_einternal>  (1) 
14.274580600825431

>  <r_i_glide_emodel>  (1) 
-52.565191163379154

>  <r_i_glide_emodel_strain>  (1) 
0.94311455709846825

>  <r_i_glide_energy>  (1) 
-42.987452002965725

>  <r_i_glide_erotb>  (1) 
0.6096786253841594

>  <r_i_glide_esite>  (1) 
-0.092193394048846244

>  <r_i_glide_evdw>  (1) 
-38.155785867720944

>  <r_i_glide_gscore>  (1) 
-6.9811443735954777

>  <r_i_glide_gscore_strain>  (1) 
0

>  <r_i_glide_hbond>  (1) 
-0.15378443673117326

>  <r_i_glide_ligand_efficiency>  (1) 
-0.19456619003627038

>  <r_i_glide_ligand_efficiency_ln>  (1) 
-1.3602997963149821

>  <r_i_glide_ligand_efficiency_sa>  (1) 
-0.61120646498944686

>  <r_i_glide_lipo>  (1) 
-2.8888216373976423

>  <r_i_glide_metal>  (1) 
-0

>  <r_i_glide_rewards>  (1) 
-1.8234843171292099

>  <r_lp_Energy>  (1) 
38.656515999999996

>  <r_lp_tautomer_probability>  (1) 
0.49995000249987359

>  <s_epik_Chemistry_Notes>  (1) 
This compound has a N-S or N-O group and may undergo hydrolysis at high or low pH.

>  <s_epik_cmdline>  (1) 
J2VwaWtfcHl0aG9uJywgJy1waHQnLCAnMS4wJywgJy1waCcsICc3LjQnLCAnLXRuJywgJzgnLCAnLW1hJywgJzUwMCcsICctaW1hZScsICc8aW5maWxlLm1hZT4nLCAnLW9tYWUnLCAnPG91dGZpbGUubWFlPic=

>  <s_epik_input>  (1) 
TjE9W0NIXU49QyhDKFtDSDJdMikoW0NIM10pW0NIM10pW0NASF0xW0NAQEhdKFtDQEBIXTIzKVNbQ0BASF0oW0NIMl0zKVtDQEhdKFtPSF0pQyg9TylbQ0gyXWM0W2NIXVtjSF1jKFtjSF1bY0hdNClDKD1PKU4oW09IXSlbQ0gyXVtDSDNd

>  <s_glide_docking_method>  (1) 
confgen

>  <s_i_glide_gridfile>  (1) 
gpcr_drd2_6luq_protein_autoprepared_prepared

>  <s_lp_Force_Field>  (1) 
S-OPLS

>  <s_lp_Variant>  (1) 
DiffSBDD_34_num_sample_100-3

>  <s_m_source_file>  (1) 
generated__ligand_DiffSBDD_2026-05-06_prepared.sdf

>  <GenAI_Model>  (1) 
DiffSBDD

>  <Protein>  (1) 
generic_title2

$$$$
DiffSBDD_29_num_sample_100
     RDKit          3D

  0  0  0  0  0  0  0  0  0  0999 V3000
M  V30 BEGIN CTAB
M  V30 COUNTS 73 77 0 0 1
M  V30 BEGIN ATOM
M  V30 1 F 6.892460 0.087413 -12.520246 0
M  V30 2 O 7.751229 4.569300 -9.341691 0
M  V30 3 N 9.569098 8.301628 -10.303162 0
M  V30 4 C 11.134758 6.568225 -5.783272 0
M  V30 5 N 7.281981 -0.230699 -15.449769 0
M  V30 6 C 8.744126 -0.758186 -17.382981 0
M  V30 7 C 8.454614 5.145901 -11.624165 0 CFG=1
M  V30 8 C 9.665133 1.183365 -18.572405 0
M  V30 9 C 8.104072 0.136360 -16.513610 0
M  V30 10 C 8.572768 8.530417 -11.247034 0
M  V30 11 C 9.547673 6.361082 -7.899385 0
M  V30 12 N 8.234825 5.933596 -13.944386 0
M  V30 13 C 11.728345 9.071926 -5.957461 0 CFG=1
M  V30 14 O 11.326974 10.318688 -5.441294 0
M  V30 15 O 5.744839 6.016193 -13.126414 0
M  V30 16 C 11.729505 7.599011 -9.542739 0
M  V30 17 C 11.776429 7.625241 -8.004834 0 CFG=2
M  V30 18 C 6.895342 1.024534 -14.681700 0 CFG=2
M  V30 19 C 7.381237 3.422226 -15.495644 0
M  V30 20 C 9.434849 4.001210 -11.898734 0
M  V30 21 C 8.154959 7.717712 -12.253335 0
M  V30 22 C 8.370937 5.524188 -10.132086 0 CFG=2
M  V30 23 N 6.634992 4.017952 -14.478402 0
M  V30 24 C 9.002773 2.039335 -17.657948 0
M  V30 25 C 7.517865 2.094457 -15.624337 0
M  V30 26 C 10.978125 6.496582 -7.321737 0 CFG=1
M  V30 27 C 9.537148 -0.228735 -18.431408 0
M  V30 28 C 11.034717 7.965492 -5.164182 0
M  V30 29 F 8.795533 0.799080 -13.280204 0
M  V30 30 C 10.400277 7.137146 -10.177370 0 CFG=1
M  V30 31 C 11.358382 8.969301 -7.434716 0
M  V30 32 C 8.709618 6.335681 -12.615899 0 CFG=1
M  V30 33 C 9.653359 6.013110 -9.414606 0 CFG=1
M  V30 34 C 7.482832 1.026558 -13.257487 0
M  V30 35 C 8.234413 1.454535 -16.638671 0
M  V30 36 O 6.292528 6.298854 -15.624802 0
M  V30 37 S 6.566819 5.711522 -14.305276 0
M  V30 38 H 6.899516 4.904254 -9.091642 0
M  V30 39 H 10.422623 5.902972 -5.295144 0
M  V30 40 H 12.115652 6.166302 -5.530227 0
M  V30 41 H 7.433651 -1.108713 -14.959638 0
M  V30 42 H 8.629022 -1.825557 -17.260799 0
M  V30 43 H 7.468375 4.736461 -11.835354 0
M  V30 44 H 10.266044 1.598077 -19.367995 0
M  V30 45 H 8.086647 9.474897 -11.091605 0
M  V30 46 H 9.026249 5.567757 -7.364995 0
M  V30 47 H 8.955482 7.262679 -7.744425 0
M  V30 48 H 8.724044 6.404572 -14.703569 0
M  V30 49 H 12.806667 9.006037 -5.839624 0
M  V30 50 H 11.753692 11.005607 -5.930386 0
M  V30 51 H 12.017574 8.571639 -9.944794 0
M  V30 52 H 12.536468 6.969236 -9.891712 0
M  V30 53 H 12.825019 7.494237 -7.740079 0
M  V30 54 H 5.811850 1.129451 -14.661615 0
M  V30 55 H 7.828887 4.129219 -16.178036 0
M  V30 56 H 10.463436 4.356254 -11.891662 0
M  V30 57 H 9.263043 3.559910 -12.879962 0
M  V30 58 H 9.348144 3.203061 -11.163099 0
M  V30 59 H 7.536921 6.169301 -10.123115 0
M  V30 60 H 6.227519 3.452642 -13.735708 0
M  V30 61 H 9.094200 3.111712 -17.739770 0
M  V30 62 H 11.434887 5.543342 -7.568468 0
M  V30 63 H 10.037832 -0.891155 -19.121102 0
M  V30 64 H 11.418754 7.948501 -4.142732 0
M  V30 65 H 9.972975 8.190561 -5.109577 0
M  V30 66 H 10.716627 6.791121 -11.147543 0
M  V30 67 H 10.283021 9.089076 -7.551485 0
M  V30 68 H 11.834764 9.769298 -7.994182 0
M  V30 69 H 9.773242 6.461160 -12.784690 0
M  V30 70 H 10.234834 5.104766 -9.442669 0
M  V30 71 H 7.326224 1.970921 -12.738067 0
M  V30 72 H 7.348720 8.067407 -12.878343 0
M  V30 73 H 9.687132 8.994923 -9.580768 0
M  V30 END ATOM
M  V30 BEGIN BOND
M  V30 1 1 9 5
M  V30 2 2 9 6
M  V30 3 1 10 3
M  V30 4 1 14 13
M  V30 5 1 17 16
M  V30 6 1 18 5
M  V30 7 1 20 7
M  V30 8 2 21 10
M  V30 9 1 22 2
M  V30 10 1 22 7
M  V30 11 1 23 19
M  V30 12 1 24 8
M  V30 13 1 25 18
M  V30 14 2 25 19
M  V30 15 1 26 4
M  V30 16 1 26 11
M  V30 17 1 26 17
M  V30 18 1 27 6
M  V30 19 2 27 8
M  V30 20 1 28 4
M  V30 21 1 28 13
M  V30 22 1 30 3
M  V30 23 1 30 16
M  V30 24 1 31 13
M  V30 25 1 31 17
M  V30 26 1 32 7
M  V30 27 1 32 12
M  V30 28 1 32 21
M  V30 29 1 33 11
M  V30 30 1 33 22
M  V30 31 1 33 30
M  V30 32 1 34 1
M  V30 33 1 34 18
M  V30 34 1 34 29
M  V30 35 1 35 9
M  V30 36 2 35 24
M  V30 37 1 35 25
M  V30 38 1 37 12
M  V30 39 2 37 15
M  V30 40 1 37 23
M  V30 41 2 37 36
M  V30 42 1 38 2
M  V30 43 1 39 4
M  V30 44 1 40 4
M  V30 45 1 41 5
M  V30 46 1 42 6
M  V30 47 1 7 43 CFG=3
M  V30 48 1 44 8
M  V30 49 1 45 10
M  V30 50 1 46 11
M  V30 51 1 47 11
M  V30 52 1 48 12
M  V30 53 1 13 49 CFG=3
M  V30 54 1 50 14
M  V30 55 1 51 16
M  V30 56 1 52 16
M  V30 57 1 17 53 CFG=3
M  V30 58 1 18 54 CFG=1
M  V30 59 1 55 19
M  V30 60 1 56 20
M  V30 61 1 57 20
M  V30 62 1 58 20
M  V30 63 1 22 59 CFG=3
M  V30 64 1 60 23
M  V30 65 1 61 24
M  V30 66 1 26 62 CFG=3
M  V30 67 1 63 27
M  V30 68 1 64 28
M  V30 69 1 65 28
M  V30 70 1 30 66 CFG=3
M  V30 71 1 67 31
M  V30 72 1 68 31
M  V30 73 1 32 69 CFG=3
M  V30 74 1 33 70 CFG=1
M  V30 75 1 71 34
M  V30 76 1 72 21
M  V30 77 1 73 3
M  V30 END BOND
M  V30 END CTAB
M  END
>  <i_epik_Tot_Q>  (1) 
0

>  <i_epik_Tot_abs_Q>  (1) 
0

>  <i_i_glide_confnum>  (1) 
76

>  <i_i_glide_lignum>  (1) 
51

>  <i_i_glide_posenum>  (1) 
236

>  <i_i_glide_rotatable_bonds>  (1) 
7

>  <i_lp_mmshare_version>  (1) 
72125

>  <i_m_source_file_index>  (1) 
30

>  <i_f3d_flags>  (1) 
0

>  <num_sample>  (1) 
100

>  <b_lp_Chiralities_Consistent>  (1) 
1

>  <r_epik_Charging_Adjusted_Penalty>  (1) 
1.5459132844328078e-07

>  <r_epik_Ionization_Penalty>  (1) 
1.5952634643945804

>  <r_epik_Ionization_Penalty_Charging>  (1) 
1.5459132844328078e-07

>  <r_epik_Ionization_Penalty_Neutral>  (1) 
1.595263309803252

>  <r_epik_State_Penalty>  (1) 
-0

>  <r_glide_ring_energy>  (1) 
0

>  <r_i_docking_score>  (1) 
-6.0274082093563077

>  <r_i_glide_ecoul>  (1) 
-1.8556711975911524

>  <r_i_glide_eff_state_penalty>  (1) 
-0

>  <r_i_glide_einternal>  (1) 
10.472188519461199

>  <r_i_glide_emodel>  (1) 
-40.682762828917539

>  <r_i_glide_emodel_strain>  (1) 
1.4810230769841155

>  <r_i_glide_energy>  (1) 
-38.0914780727771

>  <r_i_glide_erotb>  (1) 
0.28486469644810641

>  <r_i_glide_esite>  (1) 
-0.1314461073975664

>  <r_i_glide_evdw>  (1) 
-36.235806875185951

>  <r_i_glide_gscore>  (1) 
-6.0274082093563077

>  <r_i_glide_gscore_strain>  (1) 
0

>  <r_i_glide_hbond>  (1) 
-0.28834416292038578

>  <r_i_glide_ligand_efficiency>  (1) 
-0.16290292457719752

>  <r_i_glide_ligand_efficiency_ln>  (1) 
-1.30720353811282

>  <r_i_glide_ligand_efficiency_sa>  (1) 
-0.54282868497317027

>  <r_i_glide_lipo>  (1) 
-2.7599674730137309

>  <r_i_glide_metal>  (1) 
-0

>  <r_i_glide_rewards>  (1) 
-1.0423741390747598

>  <r_lp_Energy>  (1) 
36.760202

>  <r_lp_tautomer_probability>  (1) 
1

>  <s_epik_Chemistry_Notes>  (1) 
This compound has an imine and may undergo hydrolysis.

>  <s_epik_cmdline>  (1) 
J2VwaWtfcHl0aG9uJywgJy1waHQnLCAnMS4wJywgJy1waCcsICc3LjQnLCAnLXRuJywgJzgnLCAnLW1hJywgJzUwMCcsICctaW1hZScsICc8aW5maWxlLm1hZT4nLCAnLW9tYWUnLCAnPG91dGZpbGUubWFlPic=

>  <s_epik_input>  (1) 
W2NIXTFbY0hdW2NIXVtjSF1jKGMxMilDKFxbQ0BASF0oW05IXTIpW0NIXShGKUYpPVtDSF1cW05IXVMoPU8pKD1PKVtOSF1bQ0BIXShbQ0BASF0oW0NIM10pW0NASF0zW09IXSlbQ0gyXVxbQ0hdPU5cW0NAQEhdKFtDSDJdNClbQ0BIXTNbQ0gyXVtDQEBIXShbQ0BASF00NSlbQ0gyXVtDSDJdW0NASF0oW09IXSlbQ0gyXTU=

>  <s_glide_docking_method>  (1) 
confgen

>  <s_i_glide_gridfile>  (1) 
gpcr_drd2_6luq_protein_autoprepared_prepared

>  <s_lp_Force_Field>  (1) 
S-OPLS

>  <s_lp_Variant>  (1) 
DiffSBDD_29_num_sample_100-1

>  <s_m_source_file>  (1) 
generated__ligand_DiffSBDD_2026-05-06_prepared.sdf

>  <GenAI_Model>  (1) 
DiffSBDD

>  <Protein>  (1) 
generic_title2

$$$$
DiffSBDD_74_num_sample_100
     RDKit          3D

  0  0  0  0  0  0  0  0  0  0999 V3000
M  V30 BEGIN CTAB
M  V30 COUNTS 50 51 0 0 1
M  V30 BEGIN ATOM
M  V30 1 C 10.318389 8.061210 -9.486490 0
M  V30 2 C 9.693485 4.969383 -15.763774 0
M  V30 3 F 8.236534 7.459045 -12.042938 0
M  V30 4 C 11.330872 7.829892 -6.681845 0 CFG=1
M  V30 5 O 6.234840 4.396800 -14.634986 0
M  V30 6 C 9.092024 5.050414 -13.303821 0
M  V30 7 C 9.333258 5.828451 -8.854768 0
M  V30 8 C 9.879823 7.492785 -7.085383 0 CFG=1
M  V30 9 F 11.190794 7.393355 -4.372973 0
M  V30 10 C 11.774734 8.412757 -9.154820 0
M  V30 11 F 12.551598 7.369325 -9.437852 0
M  V30 12 F 9.108995 8.569287 -6.924251 0
M  V30 13 C 11.947866 8.820124 -7.682394 0
M  V30 14 C 8.048729 5.090001 -12.164480 0 CFG=2
M  V30 15 C 8.580687 4.703470 -14.725967 0 CFG=1
M  V30 16 O 7.089195 5.369305 -16.529776 0
M  V30 17 C 11.396718 8.382318 -5.241602 0
M  V30 18 C 7.190595 5.296113 -15.124339 0
M  V30 19 O 8.900513 4.969304 -8.088628 0
M  V30 20 C 6.314272 6.768362 -13.139533 0
M  V30 21 F 12.165274 9.428109 -9.919318 0
M  V30 22 N 9.836791 7.086722 -8.490233 0
M  V30 23 C 7.345894 6.464401 -12.053968 0 CFG=2
M  V30 24 C 6.854153 6.709712 -14.584563 0
M  V30 25 O 9.381853 5.683397 -10.192467 0
M  V30 26 F 12.563920 8.969305 -4.965517 0
M  V30 27 C 8.637462 4.646387 -10.811834 0
M  V30 28 H 10.263251 7.768612 -10.533858 0
M  V30 29 H 9.693390 8.951902 -9.408750 0
M  V30 30 H 9.826133 6.033848 -15.948785 0
M  V30 31 H 10.648781 4.569516 -15.430500 0
M  V30 32 H 9.476646 4.490530 -16.719087 0
M  V30 33 H 11.911085 6.907974 -6.729885 0
M  V30 34 H 6.491470 3.525288 -14.895360 0
M  V30 35 H 9.650483 5.985538 -13.323275 0
M  V30 36 H 9.834801 4.293789 -13.054254 0
M  V30 37 H 9.469566 6.733198 -6.417086 0
M  V30 38 H 13.006302 8.969298 -7.467142 0
M  V30 39 H 11.462098 9.774985 -7.524794 0
M  V30 40 H 7.295860 4.330851 -12.368673 0
M  V30 41 H 8.470998 3.617722 -14.739957 0
M  V30 42 H 6.268538 5.785748 -16.742736 0
M  V30 43 H 10.634882 9.142053 -5.067648 0
M  V30 44 H 5.926465 7.769300 -12.952329 0
M  V30 45 H 5.450494 6.114738 -13.017621 0
M  V30 46 H 6.834694 6.521717 -11.091704 0
M  V30 47 H 7.714774 7.369623 -14.691672 0
M  V30 48 H 6.074049 7.147357 -15.209145 0
M  V30 49 H 7.804036 4.347436 -10.173407 0
M  V30 50 H 9.269231 3.765269 -10.927864 0
M  V30 END ATOM
M  V30 BEGIN BOND
M  V30 1 1 8 4
M  V30 2 1 10 1
M  V30 3 1 11 10
M  V30 4 1 12 8
M  V30 5 1 13 4
M  V30 6 1 13 10
M  V30 7 1 14 6
M  V30 8 1 15 2
M  V30 9 1 15 6
M  V30 10 1 17 4
M  V30 11 1 17 9
M  V30 12 1 18 5
M  V30 13 1 18 15
M  V30 14 1 18 16
M  V30 15 2 19 7
M  V30 16 1 21 10
M  V30 17 1 22 1
M  V30 18 1 22 7
M  V30 19 1 22 8
M  V30 20 1 23 3
M  V30 21 1 23 14
M  V30 22 1 23 20
M  V30 23 1 24 18
M  V30 24 1 24 20
M  V30 25 1 25 7
M  V30 26 1 26 17
M  V30 27 1 27 14
M  V30 28 1 27 25
M  V30 29 1 28 1
M  V30 30 1 29 1
M  V30 31 1 30 2
M  V30 32 1 31 2
M  V30 33 1 32 2
M  V30 34 1 4 33 CFG=1
M  V30 35 1 34 5
M  V30 36 1 35 6
M  V30 37 1 36 6
M  V30 38 1 8 37 CFG=1
M  V30 39 1 38 13
M  V30 40 1 39 13
M  V30 41 1 14 40 CFG=3
M  V30 42 1 15 41 CFG=1
M  V30 43 1 42 16
M  V30 44 1 43 17
M  V30 45 1 44 20
M  V30 46 1 45 20
M  V30 47 1 23 46 CFG=1
M  V30 48 1 47 24
M  V30 49 1 48 24
M  V30 50 1 49 27
M  V30 51 1 50 27
M  V30 END BOND
M  V30 END CTAB
M  END
>  <i_epik_Tot_Q>  (1) 
0

>  <i_epik_Tot_abs_Q>  (1) 
0

>  <i_i_glide_confnum>  (1) 
21

>  <i_i_glide_lignum>  (1) 
148

>  <i_i_glide_posenum>  (1) 
71

>  <i_i_glide_rotatable_bonds>  (1) 
7

>  <i_lp_mmshare_version>  (1) 
72125

>  <i_m_source_file_index>  (1) 
75

>  <i_f3d_flags>  (1) 
0

>  <num_sample>  (1) 
100

>  <b_lp_Chiralities_Consistent>  (1) 
1

>  <r_epik_Charging_Adjusted_Penalty>  (1) 
0

>  <r_epik_Ionization_Penalty>  (1) 
3.1339630279600532e-07

>  <r_epik_Ionization_Penalty_Charging>  (1) 
0

>  <r_epik_Ionization_Penalty_Neutral>  (1) 
3.1339630279600532e-07

>  <r_epik_State_Penalty>  (1) 
-0

>  <r_glide_ring_energy>  (1) 
0

>  <r_i_docking_score>  (1) 
-6.0246829895726721

>  <r_i_glide_ecoul>  (1) 
-2.0948777109969372

>  <r_i_glide_eff_state_penalty>  (1) 
-0

>  <r_i_glide_einternal>  (1) 
5.8293955807245368

>  <r_i_glide_emodel>  (1) 
-44.150531195372523

>  <r_i_glide_emodel_strain>  (1) 
0.70332935387061468

>  <r_i_glide_energy>  (1) 
-36.327779024704455

>  <r_i_glide_erotb>  (1) 
0.47417469053287281

>  <r_i_glide_esite>  (1) 
-0.31135113915838536

>  <r_i_glide_evdw>  (1) 
-34.232901313707515

>  <r_i_glide_gscore>  (1) 
-6.0246829895726721

>  <r_i_glide_gscore_strain>  (1) 
0

>  <r_i_glide_hbond>  (1) 
0

>  <r_i_glide_ligand_efficiency>  (1) 
-0.22313640702121007

>  <r_i_glide_ligand_efficiency_ln>  (1) 
-1.4024468753107908

>  <r_i_glide_ligand_efficiency_sa>  (1) 
-0.66940922106363032

>  <r_i_glide_lipo>  (1) 
-1.7089954095983348

>  <r_i_glide_metal>  (1) 
-0

>  <r_i_glide_rewards>  (1) 
-2.4526344090139087

>  <r_lp_Energy>  (1) 
22.804843999999999

>  <r_lp_tautomer_probability>  (1) 
1

>  <s_epik_Chemistry_Notes>  (1) 
This compound has an ester and may undergo hydrolysis at high or low pH.

>  <s_epik_cmdline>  (1) 
J2VwaWtfcHl0aG9uJywgJy1waHQnLCAnMS4wJywgJy1waCcsICc3LjQnLCAnLXRuJywgJzgnLCAnLW1hJywgJzUwMCcsICctaW1hZScsICc8aW5maWxlLm1hZT4nLCAnLW9tYWUnLCAnPG91dGZpbGUubWFlPic=

>  <s_epik_input>  (1) 
RltDSF0oRilbQ0BIXShbQ0gyXTEpW0NAQEhdKEYpTihbQ0gyXUMxKEYpRilDKD1PKU9bQ0gyXVtDQEBIXShbQ0BASF0oRilbQ0gyXVtDSDJdMilbQ0gyXVtDQEhdKFtDSDNdKUMyKFtPSF0pW09IXQ==

>  <s_glide_docking_method>  (1) 
confgen

>  <s_i_glide_gridfile>  (1) 
gpcr_drd2_6luq_protein_autoprepared_prepared

>  <s_lp_Force_Field>  (1) 
S-OPLS

>  <s_lp_Variant>  (1) 
DiffSBDD_74_num_sample_100-1

>  <s_m_source_file>  (1) 
generated__ligand_DiffSBDD_2026-05-06_prepared.sdf

>  <GenAI_Model>  (1) 
DiffSBDD

>  <Protein>  (1) 
generic_title2

$$$$
DiffSBDD_27_num_sample_100
     RDKit          3D

  0  0  0  0  0  0  0  0  0  0999 V3000
M  V30 BEGIN CTAB
M  V30 COUNTS 57 57 0 0 1
M  V30 BEGIN ATOM
M  V30 1 C 6.840511 1.191331 -17.234441 0 CFG=2
M  V30 2 C 9.619338 5.461418 -12.504218 0
M  V30 3 N 8.056740 1.054208 -18.035275 0
M  V30 4 C 10.878911 6.188870 -6.482081 0
M  V30 5 C 6.409840 0.129286 -15.156722 0
M  V30 6 C 8.030832 3.951231 -13.799062 0
M  V30 7 N 8.234816 7.126492 -11.491668 0 CHG=1
M  V30 8 C 8.822892 5.635740 -8.667861 0
M  V30 9 C 10.316685 7.325939 -7.351750 0
M  V30 10 C 11.378883 7.799354 -8.361792 0
M  V30 11 C 8.678565 5.733214 -11.339812 0 CFG=2
M  V30 12 C 9.486574 5.516306 -10.049430 0
M  V30 13 C 7.033651 2.187046 -16.043155 0
M  V30 14 C 7.263195 5.841499 -15.170846 0
M  V30 15 C 6.420584 -0.176709 -16.560375 0
M  V30 16 O 6.170756 -1.243210 -17.116106 0
M  V30 17 C 7.209541 3.534875 -16.152892 0
M  V30 18 N 9.034859 6.946570 -8.004180 0 CHG=1
M  V30 19 N 7.431798 4.394330 -15.056552 0
M  V30 20 C 6.730728 1.369988 -14.902091 0
M  V30 21 C 7.181769 4.240687 -17.510060 0
M  V30 22 C 9.966565 8.523424 -6.465105 0
M  V30 23 C 9.338629 4.688278 -13.568272 0
M  V30 24 H 6.028697 1.546550 -17.870268 0
M  V30 25 H 10.588669 5.938818 -12.452542 0
M  V30 26 H 8.817648 0.682974 -17.485064 0
M  V30 27 H 7.911780 0.399666 -18.791414 0
M  V30 28 H 10.123108 5.785657 -5.808961 0
M  V30 29 H 11.254075 5.369256 -7.092153 0
M  V30 30 H 11.713578 6.531231 -5.869727 0
M  V30 31 H 6.146921 -0.608957 -14.411659 0
M  V30 32 H 7.305476 4.035509 -12.993814 0
M  V30 33 H 8.363511 2.918897 -13.841569 0
M  V30 34 H 7.731819 7.224615 -12.360948 0
M  V30 35 H 7.600107 7.375231 -10.723360 0
M  V30 36 H 7.749360 5.475484 -8.771069 0
M  V30 37 H 9.171566 4.838776 -8.012676 0
M  V30 38 H 10.964627 8.496072 -9.091482 0
M  V30 39 H 12.197820 8.313737 -7.856149 0
M  V30 40 H 11.834623 6.970316 -8.895746 0
M  V30 41 H 7.804581 5.087323 -11.327069 0
M  V30 42 H 9.836995 4.487157 -10.104940 0
M  V30 43 H 10.347460 6.169223 -10.103689 0
M  V30 44 H 6.468361 6.113784 -15.865291 0
M  V30 45 H 6.994813 6.266733 -14.203756 0
M  V30 46 H 8.195769 6.299884 -15.492834 0
M  V30 47 H 8.737586 7.675822 -8.640611 0
M  V30 48 H 6.747321 1.749578 -13.895580 0
M  V30 49 H 6.234617 4.751878 -17.671311 0
M  V30 50 H 7.983783 4.975572 -17.587754 0
M  V30 51 H 7.319238 3.555691 -18.343830 0
M  V30 52 H 9.136321 8.268683 -5.812912 0
M  V30 53 H 10.805162 8.847015 -5.847073 0
M  V30 54 H 9.642237 9.368731 -7.071625 0
M  V30 55 H 10.088027 4.569329 -14.337072 0
M  V30 56 H 8.334475 6.967465 -7.271525 0
M  V30 57 H 9.023132 7.755262 -11.492272 0
M  V30 END ATOM
M  V30 BEGIN BOND
M  V30 1 1 3 1
M  V30 2 1 9 4
M  V30 3 1 10 9
M  V30 4 1 11 2
M  V30 5 1 11 7
M  V30 6 1 12 8
M  V30 7 1 12 11
M  V30 8 1 13 1
M  V30 9 1 15 1
M  V30 10 1 15 5
M  V30 11 2 16 15
M  V30 12 2 17 13
M  V30 13 1 18 8
M  V30 14 1 18 9
M  V30 15 1 19 6
M  V30 16 1 19 14
M  V30 17 1 19 17
M  V30 18 2 20 5
M  V30 19 1 20 13
M  V30 20 1 21 17
M  V30 21 1 22 9
M  V30 22 2 23 2
M  V30 23 1 23 6
M  V30 24 1 1 24 CFG=3
M  V30 25 1 25 2
M  V30 26 1 26 3
M  V30 27 1 27 3
M  V30 28 1 28 4
M  V30 29 1 29 4
M  V30 30 1 30 4
M  V30 31 1 31 5
M  V30 32 1 32 6
M  V30 33 1 33 6
M  V30 34 1 34 7
M  V30 35 1 35 7
M  V30 36 1 36 8
M  V30 37 1 37 8
M  V30 38 1 38 10
M  V30 39 1 39 10
M  V30 40 1 40 10
M  V30 41 1 11 41 CFG=1
M  V30 42 1 42 12
M  V30 43 1 43 12
M  V30 44 1 44 14
M  V30 45 1 45 14
M  V30 46 1 46 14
M  V30 47 1 47 18
M  V30 48 1 48 20
M  V30 49 1 49 21
M  V30 50 1 50 21
M  V30 51 1 51 21
M  V30 52 1 52 22
M  V30 53 1 53 22
M  V30 54 1 54 22
M  V30 55 1 55 23
M  V30 56 1 56 18
M  V30 57 1 57 7
M  V30 END BOND
M  V30 END CTAB
M  END
>  <i_epik_Tot_Q>  (1) 
2

>  <i_epik_Tot_abs_Q>  (1) 
2

>  <i_i_glide_confnum>  (1) 
205

>  <i_i_glide_lignum>  (1) 
44

>  <i_i_glide_posenum>  (1) 
356

>  <i_i_glide_rotatable_bonds>  (1) 
8

>  <i_lp_mmshare_version>  (1) 
72125

>  <i_m_source_file_index>  (1) 
28

>  <i_f3d_flags>  (1) 
0

>  <num_sample>  (1) 
100

>  <b_lp_Chiralities_Consistent>  (1) 
1

>  <r_epik_Charging_Adjusted_Penalty>  (1) 
0.47954930221194114

>  <r_epik_Ionization_Penalty>  (1) 
0.082650424812652987

>  <r_epik_Ionization_Penalty_Charging>  (1) 
0.068869463259337155

>  <r_epik_Ionization_Penalty_Neutral>  (1) 
0.013780961553315832

>  <r_epik_State_Penalty>  (1) 
0.41067983895260396

>  <r_glide_ring_energy>  (1) 
0

>  <r_i_docking_score>  (1) 
-6.0216398785800731

>  <r_i_glide_ecoul>  (1) 
-11.195901107371546

>  <r_i_glide_eff_state_penalty>  (1) 
0.41067983895260396

>  <r_i_glide_einternal>  (1) 
10.27749098424388

>  <r_i_glide_emodel>  (1) 
-49.072237613040656

>  <r_i_glide_emodel_strain>  (1) 
1.2245466502961051

>  <r_i_glide_energy>  (1) 
-33.428577569010201

>  <r_i_glide_erotb>  (1) 
0.88107071462136088

>  <r_i_glide_esite>  (1) 
-0.19691270494769916

>  <r_i_glide_evdw>  (1) 
-22.232676461638654

>  <r_i_glide_gscore>  (1) 
-6.4323197175326774

>  <r_i_glide_gscore_strain>  (1) 
0

>  <r_i_glide_hbond>  (1) 
-0.39662456950580871

>  <r_i_glide_ligand_efficiency>  (1) 
-0.26181042950348143

>  <r_i_glide_ligand_efficiency_ln>  (1) 
-1.4560871238522939

>  <r_i_glide_ligand_efficiency_sa>  (1) 
-0.74455403544570697

>  <r_i_glide_lipo>  (1) 
-1.4107620576749667

>  <r_i_glide_metal>  (1) 
-0

>  <r_i_glide_rewards>  (1) 
-2.5180721108378985

>  <r_lp_Energy>  (1) 
30.360168999999999

>  <r_lp_tautomer_probability>  (1) 
0.5

>  <s_epik_cmdline>  (1) 
J2VwaWtfcHl0aG9uJywgJy1waHQnLCAnMS4wJywgJy1waCcsICc3LjQnLCAnLXRuJywgJzgnLCAnLW1hJywgJzUwMCcsICctaW1hZScsICc8aW5maWxlLm1hZT4nLCAnLW9tYWUnLCAnPG91dGZpbGUubWFlPic=

>  <s_epik_input>  (1) 
Tz1DMVtDSF09W0NIXUMoXFtDQEhdMVtOSDJdKT1DKFtDSDNdKS9OKFtDSDNdKVtDSDJdL1tDSF09W0NIXVxbQ0BIXShbTkgyXSlbQ0gyXVtDSDJdW05IXUMoW0NIM10pKFtDSDNdKVtDSDNd

>  <s_glide_docking_method>  (1) 
confgen

>  <s_i_glide_gridfile>  (1) 
gpcr_drd2_6luq_protein_autoprepared_prepared

>  <s_lp_Force_Field>  (1) 
S-OPLS

>  <s_lp_Variant>  (1) 
DiffSBDD_27_num_sample_100-2

>  <s_m_source_file>  (1) 
generated__ligand_DiffSBDD_2026-05-06_prepared.sdf

>  <GenAI_Model>  (1) 
DiffSBDD

>  <Protein>  (1) 
generic_title2

$$$$
DiffSBDD_0_num_sample_100
     RDKit          3D

  0  0  0  0  0  0  0  0  0  0999 V3000
M  V30 BEGIN CTAB
M  V30 COUNTS 105 110 0 0 1
M  V30 BEGIN ATOM
M  V30 1 C 8.450955 1.219619 -23.220999 0
M  V30 2 C 9.448597 4.848292 -13.671482 0
M  V30 3 O 8.634014 1.126930 -13.427446 0
M  V30 4 C 7.232472 1.034519 -13.469960 0 CFG=1
M  V30 5 S 12.427289 5.856437 -17.379903 0
M  V30 6 C 7.725491 0.634269 -20.805016 0 CFG=1
M  V30 7 C 4.707282 0.752720 -19.539787 0
M  V30 8 C 6.155548 1.090089 -16.342805 0 CFG=2
M  V30 9 C 9.765713 7.152835 -9.737005 0
M  V30 10 C 5.671786 1.700479 -18.813781 0
M  V30 11 C 8.304162 0.058405 -19.474819 0 CFG=1
M  V30 12 C 5.389030 -0.432991 -20.222571 0
M  V30 13 C 9.832951 5.303053 -16.855158 0 CFG=1
M  V30 14 O 12.868901 7.270485 -17.756244 0
M  V30 15 C 8.359070 3.749870 -16.774660 0 CFG=2
M  V30 16 N 9.632962 7.917800 -7.370194 0 CHG=1
M  V30 17 C 9.694400 -1.533739 -20.890852 0
M  V30 18 O 13.570879 5.208608 -16.293786 0
M  V30 19 O 6.638698 4.584993 -18.190179 0
M  V30 20 C 8.481115 5.140983 -16.083281 0 CFG=1
M  V30 21 C 7.661404 0.290030 -18.074564 0
M  V30 22 C 10.924719 6.604567 -5.692617 0
M  V30 23 O 7.804895 3.713042 -18.093947 0
M  V30 24 O 8.104672 2.604295 -15.953274 0
M  V30 25 S 8.421639 -0.461947 -16.693057 0
M  V30 26 C 8.680183 -1.413061 -19.737632 0
M  V30 27 C 9.548474 5.454891 -12.261487 0
M  V30 28 C 6.893835 4.929700 -13.994887 0
M  V30 29 C 10.590514 7.479685 -10.983245 0
M  V30 30 C 10.040392 6.910447 -12.292233 0
M  V30 31 C 6.837284 -0.178904 -15.766434 0 CFG=1
M  V30 32 O 10.636828 9.664098 -5.491004 0
M  V30 33 C 10.965655 7.693004 -6.770170 0 CFG=2
M  V30 34 C 8.288057 5.343923 -14.551434 0 CFG=1
M  V30 35 C 9.708781 8.351588 -8.774205 0
M  V30 36 C 6.553690 2.272152 -14.069390 0 CFG=1
M  V30 37 C 11.449620 9.021780 -6.182955 0
M  V30 38 C 6.828660 -0.228030 -14.228760 0
M  V30 39 N 9.227879 -0.864081 -22.120848 0 CHG=1
M  V30 40 O 12.618170 9.369338 -6.446723 0 CHG=-1
M  V30 41 N 11.033862 5.978170 -16.365030 0
M  V30 42 C 8.826378 0.542161 -21.894928 0 CFG=1
M  V30 43 C 6.768168 3.570659 -13.250654 0
M  V30 44 C 6.564035 0.996442 -17.793180 0
M  V30 45 C 6.403746 -0.025411 -21.298707 0
M  V30 46 C 6.745620 2.351827 -15.606869 0 CFG=2
M  V30 47 C 9.863313 3.798012 -17.046756 0
M  V30 48 H 8.093580 2.236872 -23.056149 0
M  V30 49 H 7.673646 0.674119 -23.758272 0
M  V30 50 H 9.322339 1.287242 -23.872386 0
M  V30 51 H 9.433401 3.769724 -13.582958 0
M  V30 52 H 10.371053 5.065830 -14.182053 0
M  V30 53 H 8.904633 1.334740 -12.542335 0
M  V30 54 H 6.909542 0.919752 -12.434190 0
M  V30 55 H 7.604846 1.705330 -20.704000 0
M  V30 56 H 4.142559 1.319159 -20.278355 0
M  V30 57 H 3.975584 0.359515 -18.833599 0
M  V30 58 H 5.078015 0.969334 -16.235179 0
M  V30 59 H 10.199288 6.274053 -9.259921 0
M  V30 60 H 8.746740 6.872243 -10.010814 0
M  V30 61 H 6.205468 2.344955 -19.494192 0
M  V30 62 H 5.039558 2.410542 -18.292206 0
M  V30 63 H 9.250123 0.582789 -19.326549 0
M  V30 64 H 5.826841 -1.096820 -19.478966 0
M  V30 65 H 4.630236 -1.054459 -20.690307 0
M  V30 66 H 9.609571 5.771245 -17.816129 0
M  V30 67 H 9.045414 7.098645 -7.306857 0
M  V30 68 H 9.889714 -2.581579 -21.113231 0
M  V30 69 H 10.638087 -1.074990 -20.599613 0
M  V30 70 H 13.111881 4.921929 -15.518058 0
M  V30 71 H 5.940896 3.967231 -18.033515 0
M  V30 72 H 7.798268 5.846335 -16.551236 0
M  V30 73 H 11.801881 6.635912 -5.046061 0
M  V30 74 H 10.924896 5.634874 -6.178122 0
M  V30 75 H 10.035007 6.672355 -5.068412 0
M  V30 76 H 9.123827 -1.830915 -18.843395 0
M  V30 77 H 7.799314 -2.020804 -19.945015 0
M  V30 78 H 8.592598 5.390068 -11.743910 0
M  V30 79 H 10.234522 4.843108 -11.681804 0
M  V30 80 H 6.116358 5.053211 -14.748057 0
M  V30 81 H 6.635020 5.682036 -13.247384 0
M  V30 82 H 10.636649 8.562355 -11.091381 0
M  V30 83 H 11.621935 7.159715 -10.834180 0
M  V30 84 H 9.218539 7.547237 -12.621429 0
M  V30 85 H 10.829277 6.997463 -13.040975 0
M  V30 86 H 6.224951 -1.028169 -16.078191 0
M  V30 87 H 11.667816 7.362604 -7.537678 0
M  V30 88 H 8.267838 6.426397 -14.436257 0
M  V30 89 H 10.576910 9.002571 -8.896138 0
M  V30 90 H 8.843046 8.971562 -9.000657 0
M  V30 91 H 5.498476 2.055490 -13.891366 0
M  V30 92 H 7.435158 -1.030678 -13.891912 0
M  V30 93 H 5.816141 -0.479513 -13.916758 0
M  V30 94 H 9.975228 -0.886351 -22.801124 0
M  V30 95 H 10.836844 6.942335 -16.136477 0
M  V30 96 H 9.709078 1.069542 -21.527842 0
M  V30 97 H 7.574512 3.435724 -12.532540 0
M  V30 98 H 5.895444 3.664551 -12.600721 0
M  V30 99 H 5.912349 0.635894 -22.013321 0
M  V30 100 H 6.625239 -0.932014 -21.860722 0
M  V30 101 H 6.234890 3.236738 -15.891648 0
M  V30 102 H 10.172457 3.480462 -18.043731 0
M  V30 103 H 10.484562 3.338554 -16.291799 0
M  V30 104 H 9.224753 8.659863 -6.814301 0
M  V30 105 H 8.436553 -1.369965 -22.492765 0
M  V30 END ATOM
M  V30 BEGIN BOND
M  V30 1 1 4 3
M  V30 2 1 10 7
M  V30 3 1 11 6
M  V30 4 1 12 7
M  V30 5 2 14 5
M  V30 6 1 5 18 CFG=1
M  V30 7 1 20 13
M  V30 8 1 20 15
M  V30 9 1 21 11
M  V30 10 1 15 23 CFG=3
M  V30 11 1 23 19
M  V30 12 1 24 15
M  V30 13 1 25 21
M  V30 14 1 26 11
M  V30 15 1 26 17
M  V30 16 1 27 2
M  V30 17 1 29 9
M  V30 18 1 30 27
M  V30 19 1 30 29
M  V30 20 1 31 8
M  V30 21 1 31 25
M  V30 22 1 33 16
M  V30 23 1 33 22
M  V30 24 1 34 2
M  V30 25 1 34 20
M  V30 26 1 34 28
M  V30 27 1 35 9
M  V30 28 1 35 16
M  V30 29 1 36 4
M  V30 30 2 37 32
M  V30 31 1 37 33
M  V30 32 1 38 4
M  V30 33 1 38 31
M  V30 34 1 39 17
M  V30 35 1 40 37
M  V30 36 1 41 5
M  V30 37 1 41 13
M  V30 38 1 42 1
M  V30 39 1 42 6
M  V30 40 1 42 39
M  V30 41 1 43 28
M  V30 42 1 43 36
M  V30 43 1 44 8
M  V30 44 1 44 10
M  V30 45 2 44 21
M  V30 46 1 45 6
M  V30 47 1 45 12
M  V30 48 1 46 8
M  V30 49 1 46 24
M  V30 50 1 46 36
M  V30 51 1 47 13
M  V30 52 1 47 15
M  V30 53 1 48 1
M  V30 54 1 49 1
M  V30 55 1 50 1
M  V30 56 1 51 2
M  V30 57 1 52 2
M  V30 58 1 53 3
M  V30 59 1 4 54 CFG=1
M  V30 60 1 6 55 CFG=1
M  V30 61 1 56 7
M  V30 62 1 57 7
M  V30 63 1 8 58 CFG=3
M  V30 64 1 59 9
M  V30 65 1 60 9
M  V30 66 1 61 10
M  V30 67 1 62 10
M  V30 68 1 11 63 CFG=1
M  V30 69 1 64 12
M  V30 70 1 65 12
M  V30 71 1 13 66 CFG=3
M  V30 72 1 67 16
M  V30 73 1 68 17
M  V30 74 1 69 17
M  V30 75 1 70 18
M  V30 76 1 71 19
M  V30 77 1 20 72 CFG=3
M  V30 78 1 73 22
M  V30 79 1 74 22
M  V30 80 1 75 22
M  V30 81 1 76 26
M  V30 82 1 77 26
M  V30 83 1 78 27
M  V30 84 1 79 27
M  V30 85 1 80 28
M  V30 86 1 81 28
M  V30 87 1 82 29
M  V30 88 1 83 29
M  V30 89 1 84 30
M  V30 90 1 85 30
M  V30 91 1 31 86 CFG=3
M  V30 92 1 33 87 CFG=3
M  V30 93 1 34 88 CFG=3
M  V30 94 1 89 35
M  V30 95 1 90 35
M  V30 96 1 36 91 CFG=3
M  V30 97 1 92 38
M  V30 98 1 93 38
M  V30 99 1 94 39
M  V30 100 1 95 41
M  V30 101 1 42 96 CFG=1
M  V30 102 1 97 43
M  V30 103 1 98 43
M  V30 104 1 99 45
M  V30 105 1 100 45
M  V30 106 1 46 101 CFG=3
M  V30 107 1 102 47
M  V30 108 1 103 47
M  V30 109 1 104 16
M  V30 110 1 105 39
M  V30 END BOND
M  V30 END CTAB
M  END
>  <i_epik_Tot_Q>  (1) 
1

>  <i_epik_Tot_abs_Q>  (1) 
3

>  <i_i_glide_confnum>  (1) 
2015

>  <i_i_glide_lignum>  (1) 
1

>  <i_i_glide_posenum>  (1) 
75

>  <i_i_glide_rotatable_bonds>  (1) 
15

>  <i_lp_mmshare_version>  (1) 
72125

>  <i_m_source_file_index>  (1) 
1

>  <i_f3d_flags>  (1) 
0

>  <num_sample>  (1) 
100

>  <b_lp_Chiralities_Consistent>  (1) 
1

>  <r_epik_Charging_Adjusted_Penalty>  (1) 
0.0032360822409407838

>  <r_epik_Ionization_Penalty>  (1) 
0.0033274947784888795

>  <r_epik_Ionization_Penalty_Charging>  (1) 
0.0032360822409407838

>  <r_epik_Ionization_Penalty_Neutral>  (1) 
9.1412537548095675e-05

>  <r_epik_State_Penalty>  (1) 
-0

>  <r_glide_ring_energy>  (1) 
0

>  <r_i_docking_score>  (1) 
-6.0098363262930334

>  <r_i_glide_ecoul>  (1) 
-7.2577026535426992

>  <r_i_glide_eff_state_penalty>  (1) 
-0

>  <r_i_glide_einternal>  (1) 
12.560654391240872

>  <r_i_glide_emodel>  (1) 
-31.423373056388499

>  <r_i_glide_emodel_strain>  (1) 
3.0990554951847571

>  <r_i_glide_energy>  (1) 
-35.298539808192245

>  <r_i_glide_erotb>  (1) 
0.30458455882301022

>  <r_i_glide_esite>  (1) 
-0.07181770278912819

>  <r_i_glide_evdw>  (1) 
-28.040837154649545

>  <r_i_glide_gscore>  (1) 
-6.0098363262930334

>  <r_i_glide_gscore_strain>  (1) 
0

>  <r_i_glide_hbond>  (1) 
-0.45701647900018971

>  <r_i_glide_ligand_efficiency>  (1) 
-0.12786885800623476

>  <r_i_glide_ligand_efficiency_ln>  (1) 
-1.2391038005058019

>  <r_i_glide_ligand_efficiency_sa>  (1) 
-0.46145646961045161

>  <r_i_glide_lipo>  (1) 
-2.3022805840013763

>  <r_i_glide_metal>  (1) 
-0

>  <r_i_glide_rewards>  (1) 
-0.99260886356146671

>  <r_lp_Energy>  (1) 
58.103532999999999

>  <r_lp_tautomer_probability>  (1) 
1

>  <s_epik_cmdline>  (1) 
J2VwaWtfcHl0aG9uJywgJy1waHQnLCAnMS4wJywgJy1waCcsICc3LjQnLCAnLXRuJywgJzgnLCAnLW1hJywgJzUwMCcsICctaW1hZScsICc8aW5maWxlLm1hZT4nLCAnLW9tYWUnLCAnPG91dGZpbGUubWFlPic=

>  <s_epik_input>  (1) 
W0NIM11bQ0BASF0xW05IXVtDSDJdW0NIMl1bQ0BIXTJbQ0BASF0xW0NIMl1bQ0gyXVtDSDJdW0NIMl1DMz1DMlNbQ0BASF0oW0NIMl1bQ0BIXTRbT0hdKVtDQEhdM1tDQEhdKE81KVtDQEBIXTRbQ0gyXVtDSDJdW0NASF0oW0NASF0oW0NAXTU2T1tPSF0pW0NASF0oW0NIMl02KVtOSF1bU0BAXSg9TylbT0hdKVtDSDJdW0NIMl1bQ0gyXVtDSDJdW0NIMl1bQ0gyXVtOSF1bQ0BIXShbQ0gzXSlDKD1PKVtPSF0=

>  <s_glide_docking_method>  (1) 
confgen

>  <s_i_glide_gridfile>  (1) 
gpcr_drd2_6luq_protein_autoprepared_prepared

>  <s_lp_Force_Field>  (1) 
S-OPLS

>  <s_lp_Variant>  (1) 
DiffSBDD_0_num_sample_100-1

>  <s_m_source_file>  (1) 
generated__ligand_DiffSBDD_2026-05-06_prepared.sdf

>  <GenAI_Model>  (1) 
DiffSBDD

>  <Protein>  (1) 
generic_title2

$$$$
DiffSBDD_48_num_sample_100
     RDKit          3D

  0  0  0  0  0  0  0  0  0  0999 V3000
M  V30 BEGIN CTAB
M  V30 COUNTS 51 53 0 0 1
M  V30 BEGIN ATOM
M  V30 1 O 12.638051 7.278350 -1.876828 0
M  V30 2 O 6.510882 6.969856 -14.939040 0
M  V30 3 C 10.497250 6.479680 -6.282289 0
M  V30 4 C 5.762642 6.132127 -14.079803 0
M  V30 5 C 7.310144 6.387647 -12.088370 0
M  V30 6 N 10.511338 7.538809 -7.382532 0
M  V30 7 C 6.662216 5.382337 -13.074002 0 CFG=2
M  V30 8 N 9.550253 7.421299 -8.404164 0
M  V30 9 C 11.858842 9.527647 -4.696280 0
M  V30 10 C 7.687312 4.493158 -13.808324 0
M  V30 11 C 9.399215 6.733154 -10.791111 0
M  V30 12 C 12.754100 5.887074 -1.633915 0
M  V30 13 C 7.835892 5.143476 -9.980611 0
M  V30 14 C 12.191576 7.708977 -3.096973 0
M  V30 15 C 11.276274 8.605506 -5.573482 0
M  V30 16 C 12.322157 9.075939 -3.442445 0
M  V30 17 C 9.047255 5.067429 -9.056549 0
M  V30 18 C 9.819845 6.355028 -9.362697 0 CFG=2
M  V30 19 O 5.787988 4.530288 -12.359915 0
M  V30 20 N 8.342289 5.784720 -11.208354 0 CFG=1 CHG=1
M  V30 21 C 11.139622 7.308972 -5.248285 0
M  V30 22 C 11.583983 6.811580 -4.017676 0
M  V30 23 C 10.766551 8.959053 -6.901012 0
M  V30 24 H 7.016805 6.427191 -15.525102 0
M  V30 25 H 9.479374 6.210044 -5.997393 0
M  V30 26 H 11.086564 5.610316 -6.571638 0
M  V30 27 H 5.035178 6.746337 -13.548720 0
M  V30 28 H 5.199846 5.427438 -14.692606 0
M  V30 29 H 7.798343 7.163598 -12.679902 0
M  V30 30 H 6.552624 6.903605 -11.494633 0
M  V30 31 H 8.600743 7.369869 -8.028803 0
M  V30 32 H 11.951979 10.566425 -4.975918 0
M  V30 33 H 8.432040 5.093336 -14.332788 0
M  V30 34 H 8.222546 3.831512 -13.126579 0
M  V30 35 H 7.198104 3.858761 -14.549069 0
M  V30 36 H 10.239771 6.671283 -11.482944 0
M  V30 37 H 9.034633 7.762852 -10.817942 0
M  V30 38 H 13.354085 5.709470 -0.741200 0
M  V30 39 H 11.766606 5.458760 -1.481216 0
M  V30 40 H 13.259848 5.369920 -2.443047 0
M  V30 41 H 7.068881 5.769118 -9.524507 0
M  V30 42 H 7.393614 4.169286 -10.175914 0
M  V30 43 H 12.774419 9.768839 -2.748564 0
M  V30 44 H 8.765529 4.958698 -8.008546 0
M  V30 45 H 9.662933 4.207026 -9.322843 0
M  V30 46 H 10.891440 6.170843 -9.341627 0
M  V30 47 H 6.279292 3.818392 -11.980722 0
M  V30 48 H 11.460715 5.769292 -3.779182 0
M  V30 49 H 11.483585 9.478890 -7.536036 0
M  V30 50 H 9.833525 9.495925 -6.794496 0
M  V30 51 H 8.814359 5.068462 -11.740245 0
M  V30 END ATOM
M  V30 BEGIN BOND
M  V30 1 1 4 2
M  V30 2 1 6 3
M  V30 3 1 7 4
M  V30 4 1 7 5
M  V30 5 1 8 6
M  V30 6 1 10 7
M  V30 7 1 12 1
M  V30 8 1 14 1
M  V30 9 1 15 9
M  V30 10 2 16 9
M  V30 11 1 16 14
M  V30 12 1 17 13
M  V30 13 1 18 8
M  V30 14 1 18 11
M  V30 15 1 18 17
M  V30 16 1 7 19 CFG=1
M  V30 17 1 20 5
M  V30 18 1 20 11
M  V30 19 1 20 13
M  V30 20 1 21 3
M  V30 21 2 21 15
M  V30 22 2 22 14
M  V30 23 1 22 21
M  V30 24 1 23 6
M  V30 25 1 23 15
M  V30 26 1 24 2
M  V30 27 1 25 3
M  V30 28 1 26 3
M  V30 29 1 27 4
M  V30 30 1 28 4
M  V30 31 1 29 5
M  V30 32 1 30 5
M  V30 33 1 31 8
M  V30 34 1 32 9
M  V30 35 1 33 10
M  V30 36 1 34 10
M  V30 37 1 35 10
M  V30 38 1 36 11
M  V30 39 1 37 11
M  V30 40 1 38 12
M  V30 41 1 39 12
M  V30 42 1 40 12
M  V30 43 1 41 13
M  V30 44 1 42 13
M  V30 45 1 43 16
M  V30 46 1 44 17
M  V30 47 1 45 17
M  V30 48 1 18 46 CFG=3
M  V30 49 1 47 19
M  V30 50 1 48 22
M  V30 51 1 49 23
M  V30 52 1 50 23
M  V30 53 1 20 51 CFG=3
M  V30 END BOND
M  V30 END CTAB
M  END
>  <i_epik_Tot_Q>  (1) 
1

>  <i_epik_Tot_abs_Q>  (1) 
1

>  <i_i_glide_confnum>  (1) 
176

>  <i_i_glide_lignum>  (1) 
89

>  <i_i_glide_posenum>  (1) 
140

>  <i_i_glide_rotatable_bonds>  (1) 
8

>  <i_lp_mmshare_version>  (1) 
72125

>  <i_m_source_file_index>  (1) 
49

>  <i_f3d_flags>  (1) 
0

>  <num_sample>  (1) 
100

>  <b_lp_Chiralities_Consistent>  (1) 
1

>  <r_epik_Charging_Adjusted_Penalty>  (1) 
0.014070542232369893

>  <r_epik_Ionization_Penalty>  (1) 
0.01444304470814459

>  <r_epik_Ionization_Penalty_Charging>  (1) 
0.014070542232369893

>  <r_epik_Ionization_Penalty_Neutral>  (1) 
0.00037250247577469821

>  <r_epik_State_Penalty>  (1) 
-0

>  <r_glide_ring_energy>  (1) 
0.0027901821581941132

>  <r_i_docking_score>  (1) 
-6.0057835958071699

>  <r_i_glide_ecoul>  (1) 
-5.6052438826137294

>  <r_i_glide_eff_state_penalty>  (1) 
-0

>  <r_i_glide_einternal>  (1) 
4.0167944344181521

>  <r_i_glide_emodel>  (1) 
-55.068292752469389

>  <r_i_glide_emodel_strain>  (1) 
0.18949766462353068

>  <r_i_glide_energy>  (1) 
-37.37978923538914

>  <r_i_glide_erotb>  (1) 
0.89938055447957976

>  <r_i_glide_esite>  (1) 
-0.1629985308379952

>  <r_i_glide_evdw>  (1) 
-31.774545352775412

>  <r_i_glide_gscore>  (1) 
-6.0057835958071699

>  <r_i_glide_gscore_strain>  (1) 
0

>  <r_i_glide_hbond>  (1) 
-0.037260121993027924

>  <r_i_glide_ligand_efficiency>  (1) 
-0.26112102590465958

>  <r_i_glide_ligand_efficiency_ln>  (1) 
-1.4522529309009828

>  <r_i_glide_ligand_efficiency_sa>  (1) 
-0.74259346331522658

>  <r_i_glide_lipo>  (1) 
-2.5582827359576958

>  <r_i_glide_metal>  (1) 
-0

>  <r_i_glide_rewards>  (1) 
-1.7171089114671998

>  <r_lp_Energy>  (1) 
33.837268999999999

>  <r_lp_tautomer_probability>  (1) 
1

>  <s_epik_cmdline>  (1) 
J2VwaWtfcHl0aG9uJywgJy1waHQnLCAnMS4wJywgJy1waCcsICc3LjQnLCAnLXRuJywgJzgnLCAnLW1hJywgJzUwMCcsICctaW1hZScsICc8aW5maWxlLm1hZT4nLCAnLW9tYWUnLCAnPG91dGZpbGUubWFlPic=

>  <s_epik_input>  (1) 
W2NIXTFbY0hdYyhPW0NIM10pW2NIXWMoYzEyKVtDSDJdTihbQ0gyXTIpW05IXVtDQEBIXTNbQ0gyXU4oW0NIMl1bQ0gyXTMpW0NIMl1bQ0BAXShbQ0gzXSkoW09IXSlbQ0gyXVtPSF0=

>  <s_glide_docking_method>  (1) 
confgen

>  <s_i_glide_gridfile>  (1) 
gpcr_drd2_6luq_protein_autoprepared_prepared

>  <s_lp_Force_Field>  (1) 
S-OPLS

>  <s_lp_Variant>  (1) 
DiffSBDD_48_num_sample_100-1

>  <s_m_source_file>  (1) 
generated__ligand_DiffSBDD_2026-05-06_prepared.sdf

>  <GenAI_Model>  (1) 
DiffSBDD

>  <Protein>  (1) 
generic_title2

$$$$
DiffSBDD_74_num_sample_100
     RDKit          3D

  0  0  0  0  0  0  0  0  0  0999 V3000
M  V30 BEGIN CTAB
M  V30 COUNTS 50 51 0 0 1
M  V30 BEGIN ATOM
M  V30 1 C 10.298540 8.079722 -9.436621 0
M  V30 2 C 9.665802 4.969311 -15.731305 0
M  V30 3 F 8.227357 7.447506 -12.079501 0
M  V30 4 C 11.340732 7.831339 -6.644645 0 CFG=1
M  V30 5 O 6.234841 4.276099 -14.529058 0
M  V30 6 C 9.091163 5.011450 -13.266692 0
M  V30 7 C 9.337959 5.836801 -8.811000 0
M  V30 8 C 9.886935 7.494500 -7.036691 0 CFG=1
M  V30 9 F 11.227248 7.379811 -4.336068 0
M  V30 10 C 11.760164 8.420797 -9.121822 0
M  V30 11 F 12.524619 7.369348 -9.412530 0
M  V30 12 F 9.115816 8.569317 -6.864272 0
M  V30 13 C 11.950206 8.825086 -7.648742 0
M  V30 14 C 8.050348 5.073899 -12.126694 0 CFG=2
M  V30 15 C 8.577963 4.647086 -14.684843 0 CFG=1
M  V30 16 O 7.035438 5.220022 -16.478460 0
M  V30 17 C 11.416558 8.375341 -5.201484 0
M  V30 18 C 7.163204 5.180562 -15.071597 0
M  V30 19 O 8.920146 4.969284 -8.046076 0
M  V30 20 C 6.289550 6.708273 -13.131051 0
M  V30 21 F 12.148040 9.433392 -9.891724 0
M  V30 22 N 9.834859 7.096210 -8.443244 0
M  V30 23 C 7.341643 6.448024 -12.053305 0 CFG=2
M  V30 24 C 6.805061 6.605514 -14.579924 0
M  V30 25 O 9.373388 5.700946 -10.151489 0
M  V30 26 F 12.582077 8.969304 -4.933643 0
M  V30 27 C 8.634909 4.656738 -10.764146 0
M  V30 28 H 10.219371 7.801400 -10.486263 0
M  V30 29 H 9.676065 8.969314 -9.334836 0
M  V30 30 H 9.732326 6.038721 -15.922837 0
M  V30 31 H 10.644591 4.632657 -15.395888 0
M  V30 32 H 9.479910 4.472437 -16.683447 0
M  V30 33 H 11.919824 6.909176 -6.701231 0
M  V30 34 H 6.512370 3.395563 -14.726365 0
M  V30 35 H 9.651512 5.945284 -13.301017 0
M  V30 36 H 9.834876 4.259078 -13.006468 0
M  V30 37 H 9.483446 6.731266 -6.368347 0
M  V30 38 H 13.011759 8.969298 -7.445281 0
M  V30 39 H 11.471346 9.783151 -7.483103 0
M  V30 40 H 7.301329 4.305787 -12.307644 0
M  V30 41 H 8.510148 3.558282 -14.699459 0
M  V30 42 H 7.481417 4.473130 -16.845548 0
M  V30 43 H 10.648533 9.126288 -5.015335 0
M  V30 44 H 5.892867 7.710941 -12.972512 0
M  V30 45 H 5.434748 6.050220 -12.975579 0
M  V30 46 H 6.837644 6.533127 -11.091671 0
M  V30 47 H 7.650025 7.278140 -14.723463 0
M  V30 48 H 6.007241 7.001656 -15.210511 0
M  V30 49 H 7.796510 4.371641 -10.125562 0
M  V30 50 H 9.263843 3.770812 -10.859454 0
M  V30 END ATOM
M  V30 BEGIN BOND
M  V30 1 1 8 4
M  V30 2 1 10 1
M  V30 3 1 11 10
M  V30 4 1 12 8
M  V30 5 1 13 4
M  V30 6 1 13 10
M  V30 7 1 14 6
M  V30 8 1 15 2
M  V30 9 1 15 6
M  V30 10 1 17 4
M  V30 11 1 17 9
M  V30 12 1 18 5
M  V30 13 1 18 15
M  V30 14 1 18 16
M  V30 15 2 19 7
M  V30 16 1 21 10
M  V30 17 1 22 1
M  V30 18 1 22 7
M  V30 19 1 22 8
M  V30 20 1 23 3
M  V30 21 1 23 14
M  V30 22 1 23 20
M  V30 23 1 24 18
M  V30 24 1 24 20
M  V30 25 1 25 7
M  V30 26 1 26 17
M  V30 27 1 27 14
M  V30 28 1 27 25
M  V30 29 1 28 1
M  V30 30 1 29 1
M  V30 31 1 30 2
M  V30 32 1 31 2
M  V30 33 1 32 2
M  V30 34 1 4 33 CFG=1
M  V30 35 1 34 5
M  V30 36 1 35 6
M  V30 37 1 36 6
M  V30 38 1 8 37 CFG=1
M  V30 39 1 38 13
M  V30 40 1 39 13
M  V30 41 1 14 40 CFG=3
M  V30 42 1 15 41 CFG=1
M  V30 43 1 42 16
M  V30 44 1 43 17
M  V30 45 1 44 20
M  V30 46 1 45 20
M  V30 47 1 23 46 CFG=1
M  V30 48 1 47 24
M  V30 49 1 48 24
M  V30 50 1 49 27
M  V30 51 1 50 27
M  V30 END BOND
M  V30 END CTAB
M  END
>  <i_epik_Tot_Q>  (1) 
0

>  <i_epik_Tot_abs_Q>  (1) 
0

>  <i_i_glide_confnum>  (1) 
21

>  <i_i_glide_lignum>  (1) 
148

>  <i_i_glide_posenum>  (1) 
71

>  <i_i_glide_rotatable_bonds>  (1) 
7

>  <i_lp_mmshare_version>  (1) 
72125

>  <i_m_source_file_index>  (1) 
75

>  <i_f3d_flags>  (1) 
0

>  <num_sample>  (1) 
100

>  <b_lp_Chiralities_Consistent>  (1) 
1

>  <r_epik_Charging_Adjusted_Penalty>  (1) 
0

>  <r_epik_Ionization_Penalty>  (1) 
3.1339630279600532e-07

>  <r_epik_Ionization_Penalty_Charging>  (1) 
0

>  <r_epik_Ionization_Penalty_Neutral>  (1) 
3.1339630279600532e-07

>  <r_epik_State_Penalty>  (1) 
-0

>  <r_glide_ring_energy>  (1) 
0

>  <r_i_docking_score>  (1) 
-5.991695789764198

>  <r_i_glide_ecoul>  (1) 
-2.4600685525094264

>  <r_i_glide_eff_state_penalty>  (1) 
-0

>  <r_i_glide_einternal>  (1) 
4.1262732013334062

>  <r_i_glide_emodel>  (1) 
-45.166305529091019

>  <r_i_glide_emodel_strain>  (1) 
0.69207584309947379

>  <r_i_glide_energy>  (1) 
-36.543380837449924

>  <r_i_glide_erotb>  (1) 
0.47417469053287281

>  <r_i_glide_esite>  (1) 
-0.3049185267368939

>  <r_i_glide_evdw>  (1) 
-34.083312284940497

>  <r_i_glide_gscore>  (1) 
-5.991695789764198

>  <r_i_glide_gscore_strain>  (1) 
0

>  <r_i_glide_hbond>  (1) 
0

>  <r_i_glide_ligand_efficiency>  (1) 
-0.22191465888015549

>  <r_i_glide_ligand_efficiency_ln>  (1) 
-1.3947679990318702

>  <r_i_glide_ligand_efficiency_sa>  (1) 
-0.66574397664046658

>  <r_i_glide_lipo>  (1) 
-1.6785063276882559

>  <r_i_glide_metal>  (1) 
-0

>  <r_i_glide_rewards>  (1) 
-2.409269728748483

>  <r_lp_Energy>  (1) 
22.804843999999999

>  <r_lp_tautomer_probability>  (1) 
1

>  <s_epik_Chemistry_Notes>  (1) 
This compound has an ester and may undergo hydrolysis at high or low pH.

>  <s_epik_cmdline>  (1) 
J2VwaWtfcHl0aG9uJywgJy1waHQnLCAnMS4wJywgJy1waCcsICc3LjQnLCAnLXRuJywgJzgnLCAnLW1hJywgJzUwMCcsICctaW1hZScsICc8aW5maWxlLm1hZT4nLCAnLW9tYWUnLCAnPG91dGZpbGUubWFlPic=

>  <s_epik_input>  (1) 
RltDSF0oRilbQ0BIXShbQ0gyXTEpW0NAQEhdKEYpTihbQ0gyXUMxKEYpRilDKD1PKU9bQ0gyXVtDQEBIXShbQ0BASF0oRilbQ0gyXVtDSDJdMilbQ0gyXVtDQEhdKFtDSDNdKUMyKFtPSF0pW09IXQ==

>  <s_glide_docking_method>  (1) 
confgen

>  <s_i_glide_gridfile>  (1) 
gpcr_drd2_6luq_protein_autoprepared_prepared

>  <s_lp_Force_Field>  (1) 
S-OPLS

>  <s_lp_Variant>  (1) 
DiffSBDD_74_num_sample_100-1

>  <s_m_source_file>  (1) 
generated__ligand_DiffSBDD_2026-05-06_prepared.sdf

>  <GenAI_Model>  (1) 
DiffSBDD

>  <Protein>  (1) 
generic_title2

$$$$
DiffSBDD_29_num_sample_100
     RDKit          3D

  0  0  0  0  0  0  0  0  0  0999 V3000
M  V30 BEGIN CTAB
M  V30 COUNTS 73 77 0 0 1
M  V30 BEGIN ATOM
M  V30 1 F 8.603573 0.666179 -13.500760 0
M  V30 2 O 7.646665 4.569297 -9.481449 0
M  V30 3 N 9.434862 8.273496 -10.545868 0
M  V30 4 C 11.011516 6.569232 -5.976355 0
M  V30 5 N 7.313594 -0.355952 -15.925235 0
M  V30 6 C 8.959921 -0.755045 -17.736003 0
M  V30 7 C 8.403626 5.049005 -11.758271 0 CFG=1
M  V30 8 C 10.002325 1.256847 -18.683838 0
M  V30 9 C 8.238072 0.080294 -16.872774 0
M  V30 10 C 8.416423 8.435387 -11.491689 0
M  V30 11 C 9.490752 6.340936 -8.084772 0
M  V30 12 N 8.203572 5.768335 -14.105188 0
M  V30 13 C 11.567595 9.053750 -6.122324 0 CFG=1
M  V30 14 O 11.197459 10.302143 -5.593666 0
M  V30 15 O 5.695327 5.785850 -13.309243 0
M  V30 16 C 11.629188 7.610303 -9.734338 0
M  V30 17 C 11.703808 7.627958 -8.192760 0 CFG=2
M  V30 18 C 6.858722 0.851242 -15.110409 0 CFG=2
M  V30 19 C 7.454125 3.298194 -15.693867 0
M  V30 20 C 9.431688 3.928211 -11.964268 0
M  V30 21 C 8.027296 7.576035 -12.465465 0
M  V30 22 C 8.294207 5.493619 -10.286598 0 CFG=2
M  V30 23 N 6.634958 3.842947 -14.705241 0
M  V30 24 C 9.255949 2.051631 -17.781594 0
M  V30 25 C 7.582435 1.978968 -15.905435 0
M  V30 26 C 10.916671 6.489006 -7.510202 0 CFG=1
M  V30 27 C 9.854438 -0.159104 -18.659672 0
M  V30 28 C 10.769781 7.966328 -5.412682 0
M  V30 29 F 6.795506 1.718659 -12.891901 0
M  V30 30 C 10.300149 7.130242 -10.372682 0 CFG=1
M  V30 31 C 11.294697 8.969293 -7.622250 0
M  V30 32 C 8.638094 6.210634 -12.782215 0 CFG=1
M  V30 33 C 9.590008 5.995024 -9.593257 0 CFG=1
M  V30 34 C 7.277416 0.721740 -13.633220 0
M  V30 35 C 8.385919 1.403935 -16.888835 0
M  V30 36 O 6.273928 6.151949 -15.789515 0
M  V30 37 S 6.539927 5.529357 -14.484292 0
M  V30 38 H 6.947334 5.021438 -9.028797 0
M  V30 39 H 10.311914 5.869518 -5.521158 0
M  V30 40 H 11.998053 6.225712 -5.669101 0
M  V30 41 H 7.434375 -1.259716 -15.474189 0
M  V30 42 H 8.830957 -1.826797 -17.704389 0
M  V30 43 H 7.434717 4.601321 -11.971910 0
M  V30 44 H 10.681396 1.720571 -19.383613 0
M  V30 45 H 7.896609 9.369310 -11.369608 0
M  V30 46 H 8.979749 5.543356 -7.545828 0
M  V30 47 H 8.893612 7.238656 -7.925486 0
M  V30 48 H 8.693158 6.246866 -14.859505 0
M  V30 49 H 12.634518 8.969297 -5.931998 0
M  V30 50 H 10.267764 10.417007 -5.713282 0
M  V30 51 H 11.911854 8.582885 -10.142113 0
M  V30 52 H 12.430238 6.969305 -10.076830 0
M  V30 53 H 12.755529 7.504954 -7.928614 0
M  V30 54 H 5.777799 0.959972 -15.205983 0
M  V30 55 H 7.973552 4.039543 -16.283859 0
M  V30 56 H 10.447525 4.309524 -11.892128 0
M  V30 57 H 9.321182 3.466900 -12.945412 0
M  V30 58 H 9.324912 3.139804 -11.221693 0
M  V30 59 H 7.476335 6.169303 -10.291738 0
M  V30 60 H 6.236813 3.241018 -13.984037 0
M  V30 61 H 9.359740 3.126100 -17.777605 0
M  V30 62 H 11.420866 5.558085 -7.749472 0
M  V30 63 H 10.418461 -0.773766 -19.342354 0
M  V30 64 H 11.034839 7.971079 -4.355269 0
M  V30 65 H 9.703952 8.182949 -5.491763 0
M  V30 66 H 10.636562 6.768837 -11.329935 0
M  V30 67 H 10.229567 9.101320 -7.809153 0
M  V30 68 H 11.832143 9.769220 -8.134104 0
M  V30 69 H 9.698143 6.363676 -12.940552 0
M  V30 70 H 10.234824 5.124299 -9.618008 0
M  V30 71 H 6.872163 -0.195312 -13.202763 0
M  V30 72 H 7.204764 7.870947 -13.098316 0
M  V30 73 H 9.540583 9.000580 -9.854659 0
M  V30 END ATOM
M  V30 BEGIN BOND
M  V30 1 1 9 5
M  V30 2 2 9 6
M  V30 3 1 10 3
M  V30 4 1 14 13
M  V30 5 1 17 16
M  V30 6 1 18 5
M  V30 7 1 20 7
M  V30 8 2 21 10
M  V30 9 1 22 2
M  V30 10 1 22 7
M  V30 11 1 23 19
M  V30 12 1 24 8
M  V30 13 1 25 18
M  V30 14 2 25 19
M  V30 15 1 26 4
M  V30 16 1 26 11
M  V30 17 1 26 17
M  V30 18 1 27 6
M  V30 19 2 27 8
M  V30 20 1 28 4
M  V30 21 1 28 13
M  V30 22 1 30 3
M  V30 23 1 30 16
M  V30 24 1 31 13
M  V30 25 1 31 17
M  V30 26 1 32 7
M  V30 27 1 32 12
M  V30 28 1 32 21
M  V30 29 1 33 11
M  V30 30 1 33 22
M  V30 31 1 33 30
M  V30 32 1 34 1
M  V30 33 1 34 18
M  V30 34 1 34 29
M  V30 35 1 35 9
M  V30 36 2 35 24
M  V30 37 1 35 25
M  V30 38 1 37 12
M  V30 39 2 37 15
M  V30 40 1 37 23
M  V30 41 2 37 36
M  V30 42 1 38 2
M  V30 43 1 39 4
M  V30 44 1 40 4
M  V30 45 1 41 5
M  V30 46 1 42 6
M  V30 47 1 7 43 CFG=3
M  V30 48 1 44 8
M  V30 49 1 45 10
M  V30 50 1 46 11
M  V30 51 1 47 11
M  V30 52 1 48 12
M  V30 53 1 13 49 CFG=3
M  V30 54 1 50 14
M  V30 55 1 51 16
M  V30 56 1 52 16
M  V30 57 1 17 53 CFG=3
M  V30 58 1 18 54 CFG=1
M  V30 59 1 55 19
M  V30 60 1 56 20
M  V30 61 1 57 20
M  V30 62 1 58 20
M  V30 63 1 22 59 CFG=3
M  V30 64 1 60 23
M  V30 65 1 61 24
M  V30 66 1 26 62 CFG=3
M  V30 67 1 63 27
M  V30 68 1 64 28
M  V30 69 1 65 28
M  V30 70 1 30 66 CFG=3
M  V30 71 1 67 31
M  V30 72 1 68 31
M  V30 73 1 32 69 CFG=3
M  V30 74 1 33 70 CFG=1
M  V30 75 1 71 34
M  V30 76 1 72 21
M  V30 77 1 73 3
M  V30 END BOND
M  V30 END CTAB
M  END
>  <i_epik_Tot_Q>  (1) 
0

>  <i_epik_Tot_abs_Q>  (1) 
0

>  <i_i_glide_confnum>  (1) 
76

>  <i_i_glide_lignum>  (1) 
51

>  <i_i_glide_posenum>  (1) 
64

>  <i_i_glide_rotatable_bonds>  (1) 
7

>  <i_lp_mmshare_version>  (1) 
72125

>  <i_m_source_file_index>  (1) 
30

>  <i_f3d_flags>  (1) 
0

>  <num_sample>  (1) 
100

>  <b_lp_Chiralities_Consistent>  (1) 
1

>  <r_epik_Charging_Adjusted_Penalty>  (1) 
1.5459132844328078e-07

>  <r_epik_Ionization_Penalty>  (1) 
1.5952634643945804

>  <r_epik_Ionization_Penalty_Charging>  (1) 
1.5459132844328078e-07

>  <r_epik_Ionization_Penalty_Neutral>  (1) 
1.595263309803252

>  <r_epik_State_Penalty>  (1) 
-0

>  <r_glide_ring_energy>  (1) 
0

>  <r_i_docking_score>  (1) 
-5.9877641466037757

>  <r_i_glide_ecoul>  (1) 
-1.8333331613815922

>  <r_i_glide_eff_state_penalty>  (1) 
-0

>  <r_i_glide_einternal>  (1) 
10.633608769434844

>  <r_i_glide_emodel>  (1) 
-40.181631182471186

>  <r_i_glide_emodel_strain>  (1) 
0.88425156586106368

>  <r_i_glide_energy>  (1) 
-37.135509178974786

>  <r_i_glide_erotb>  (1) 
0.28486469644810641

>  <r_i_glide_esite>  (1) 
-0.12702136764644961

>  <r_i_glide_evdw>  (1) 
-35.302176017593197

>  <r_i_glide_gscore>  (1) 
-5.9877641466037757

>  <r_i_glide_gscore_strain>  (1) 
0

>  <r_i_glide_hbond>  (1) 
-0.29321656451227668

>  <r_i_glide_ligand_efficiency>  (1) 
-0.16183146342172366

>  <r_i_glide_ligand_efficiency_ln>  (1) 
-1.2986056702904891

>  <r_i_glide_ligand_efficiency_sa>  (1) 
-0.53925833869771045

>  <r_i_glide_lipo>  (1) 
-2.6760912680897713

>  <r_i_glide_metal>  (1) 
-0

>  <r_i_glide_rewards>  (1) 
-1.1361908677164856

>  <r_lp_Energy>  (1) 
36.760202

>  <r_lp_tautomer_probability>  (1) 
1

>  <s_epik_Chemistry_Notes>  (1) 
This compound has an imine and may undergo hydrolysis.

>  <s_epik_cmdline>  (1) 
J2VwaWtfcHl0aG9uJywgJy1waHQnLCAnMS4wJywgJy1waCcsICc3LjQnLCAnLXRuJywgJzgnLCAnLW1hJywgJzUwMCcsICctaW1hZScsICc8aW5maWxlLm1hZT4nLCAnLW9tYWUnLCAnPG91dGZpbGUubWFlPic=

>  <s_epik_input>  (1) 
W2NIXTFbY0hdW2NIXVtjSF1jKGMxMilDKFxbQ0BASF0oW05IXTIpW0NIXShGKUYpPVtDSF1cW05IXVMoPU8pKD1PKVtOSF1bQ0BIXShbQ0BASF0oW0NIM10pW0NASF0zW09IXSlbQ0gyXVxbQ0hdPU5cW0NAQEhdKFtDSDJdNClbQ0BIXTNbQ0gyXVtDQEBIXShbQ0BASF00NSlbQ0gyXVtDSDJdW0NASF0oW09IXSlbQ0gyXTU=

>  <s_glide_docking_method>  (1) 
confgen

>  <s_i_glide_gridfile>  (1) 
gpcr_drd2_6luq_protein_autoprepared_prepared

>  <s_lp_Force_Field>  (1) 
S-OPLS

>  <s_lp_Variant>  (1) 
DiffSBDD_29_num_sample_100-1

>  <s_m_source_file>  (1) 
generated__ligand_DiffSBDD_2026-05-06_prepared.sdf

>  <GenAI_Model>  (1) 
DiffSBDD

>  <Protein>  (1) 
generic_title2

$$$$
DiffSBDD_27_num_sample_100
     RDKit          3D

  0  0  0  0  0  0  0  0  0  0999 V3000
M  V30 BEGIN CTAB
M  V30 COUNTS 57 57 0 0 1
M  V30 BEGIN ATOM
M  V30 1 C 7.615830 2.523461 -17.335976 0 CFG=2
M  V30 2 C 9.360403 5.531571 -12.341214 0
M  V30 3 N 8.621750 3.010072 -18.282403 0
M  V30 4 C 11.106100 6.072446 -6.805993 0
M  V30 5 C 8.009795 1.359630 -15.316399 0
M  V30 6 C 7.218763 5.324618 -13.708354 0
M  V30 7 N 9.034718 7.550865 -11.091816 0 CHG=1
M  V30 8 C 8.606421 5.715974 -8.448956 0
M  V30 9 C 10.439172 7.299086 -7.441195 0
M  V30 10 C 11.281814 7.822076 -8.621803 0
M  V30 11 C 8.691954 6.118699 -11.104821 0 CFG=2
M  V30 12 C 9.168305 5.360331 -9.840558 0
M  V30 13 C 7.431355 3.479381 -16.102012 0
M  V30 14 C 6.399369 7.047575 -15.253387 0
M  V30 15 C 8.012231 1.121299 -16.728460 0
M  V30 16 O 8.296353 0.086926 -17.327915 0
M  V30 17 C 7.034011 4.789024 -16.195106 0
M  V30 18 N 9.035033 7.013235 -7.851367 0 CHG=1
M  V30 19 N 6.890642 5.676104 -15.087932 0
M  V30 20 C 7.708088 2.591059 -15.002066 0
M  V30 21 C 6.676525 5.412571 -17.546698 0
M  V30 22 C 10.383793 8.410317 -6.375741 0
M  V30 23 C 8.719752 5.184610 -13.474778 0
M  V30 24 H 6.659293 2.427744 -17.849067 0
M  V30 25 H 10.431234 5.390261 -12.283750 0
M  V30 26 H 9.538325 3.049717 -17.860022 0
M  V30 27 H 8.703700 2.386379 -19.073572 0
M  V30 28 H 10.573228 5.769360 -5.905282 0
M  V30 29 H 11.136646 5.227408 -7.491015 0
M  V30 30 H 12.135817 6.279540 -6.516087 0
M  V30 31 H 8.240187 0.579189 -14.605169 0
M  V30 32 H 6.832310 6.116549 -13.069096 0
M  V30 33 H 6.648031 4.453999 -13.392722 0
M  V30 34 H 8.869261 7.932971 -12.011951 0
M  V30 35 H 8.385840 7.992139 -10.440819 0
M  V30 36 H 7.518743 5.721398 -8.512932 0
M  V30 37 H 8.842919 4.916224 -7.747719 0
M  V30 38 H 10.824287 8.696624 -9.085460 0
M  V30 39 H 12.273123 8.126410 -8.281217 0
M  V30 40 H 11.447125 7.073629 -9.392556 0
M  V30 41 H 7.607894 6.033553 -11.153627 0
M  V30 42 H 8.918515 4.311794 -10.009362 0
M  V30 43 H 10.234853 5.360839 -9.777502 0
M  V30 44 H 6.634731 7.497609 -16.214939 0
M  V30 45 H 5.315592 7.066653 -15.136796 0
M  V30 46 H 6.829320 7.708700 -14.500159 0
M  V30 47 H 8.636467 7.757332 -8.413242 0
M  V30 48 H 7.671622 2.901594 -13.980061 0
M  V30 49 H 5.740720 5.970293 -17.503211 0
M  V30 50 H 7.473471 6.073990 -17.887840 0
M  V30 51 H 6.516616 4.665535 -18.322065 0
M  V30 52 H 9.832196 8.089615 -5.491753 0
M  V30 53 H 11.383452 8.692865 -6.042898 0
M  V30 54 H 9.900900 9.310896 -6.756072 0
M  V30 55 H 9.293333 4.772487 -14.293325 0
M  V30 56 H 8.489329 7.044967 -6.998666 0
M  V30 57 H 9.994584 7.702191 -10.823795 0
M  V30 END ATOM
M  V30 BEGIN BOND
M  V30 1 1 3 1
M  V30 2 1 9 4
M  V30 3 1 10 9
M  V30 4 1 11 2
M  V30 5 1 11 7
M  V30 6 1 12 8
M  V30 7 1 12 11
M  V30 8 1 13 1
M  V30 9 1 15 1
M  V30 10 1 15 5
M  V30 11 2 16 15
M  V30 12 2 17 13
M  V30 13 1 18 8
M  V30 14 1 18 9
M  V30 15 1 19 6
M  V30 16 1 19 14
M  V30 17 1 19 17
M  V30 18 2 20 5
M  V30 19 1 20 13
M  V30 20 1 21 17
M  V30 21 1 22 9
M  V30 22 2 23 2
M  V30 23 1 23 6
M  V30 24 1 1 24 CFG=3
M  V30 25 1 25 2
M  V30 26 1 26 3
M  V30 27 1 27 3
M  V30 28 1 28 4
M  V30 29 1 29 4
M  V30 30 1 30 4
M  V30 31 1 31 5
M  V30 32 1 32 6
M  V30 33 1 33 6
M  V30 34 1 34 7
M  V30 35 1 35 7
M  V30 36 1 36 8
M  V30 37 1 37 8
M  V30 38 1 38 10
M  V30 39 1 39 10
M  V30 40 1 40 10
M  V30 41 1 11 41 CFG=3
M  V30 42 1 42 12
M  V30 43 1 43 12
M  V30 44 1 44 14
M  V30 45 1 45 14
M  V30 46 1 46 14
M  V30 47 1 47 18
M  V30 48 1 48 20
M  V30 49 1 49 21
M  V30 50 1 50 21
M  V30 51 1 51 21
M  V30 52 1 52 22
M  V30 53 1 53 22
M  V30 54 1 54 22
M  V30 55 1 55 23
M  V30 56 1 56 18
M  V30 57 1 57 7
M  V30 END BOND
M  V30 END CTAB
M  END
>  <i_epik_Tot_Q>  (1) 
2

>  <i_epik_Tot_abs_Q>  (1) 
2

>  <i_i_glide_confnum>  (1) 
175

>  <i_i_glide_lignum>  (1) 
44

>  <i_i_glide_posenum>  (1) 
321

>  <i_i_glide_rotatable_bonds>  (1) 
8

>  <i_lp_mmshare_version>  (1) 
72125

>  <i_m_source_file_index>  (1) 
28

>  <i_f3d_flags>  (1) 
0

>  <num_sample>  (1) 
100

>  <b_lp_Chiralities_Consistent>  (1) 
1

>  <r_epik_Charging_Adjusted_Penalty>  (1) 
0.47954930221194114

>  <r_epik_Ionization_Penalty>  (1) 
0.082650424812652987

>  <r_epik_Ionization_Penalty_Charging>  (1) 
0.068869463259337155

>  <r_epik_Ionization_Penalty_Neutral>  (1) 
0.013780961553315832

>  <r_epik_State_Penalty>  (1) 
0.41067983895260396

>  <r_glide_ring_energy>  (1) 
0

>  <r_i_docking_score>  (1) 
-5.9808655237798281

>  <r_i_glide_ecoul>  (1) 
-8.962773090144335

>  <r_i_glide_eff_state_penalty>  (1) 
0.41067983895260396

>  <r_i_glide_einternal>  (1) 
10.171103448537712

>  <r_i_glide_emodel>  (1) 
-48.910689884638089

>  <r_i_glide_emodel_strain>  (1) 
0.3543878453713134

>  <r_i_glide_energy>  (1) 
-32.483178927561696

>  <r_i_glide_erotb>  (1) 
0.88107071462136088

>  <r_i_glide_esite>  (1) 
-0.19766210071932697

>  <r_i_glide_evdw>  (1) 
-23.520405837417357

>  <r_i_glide_gscore>  (1) 
-6.3915453627324323

>  <r_i_glide_gscore_strain>  (1) 
0

>  <r_i_glide_hbond>  (1) 
-0.34138130027215507

>  <r_i_glide_ligand_efficiency>  (1) 
-0.26003763146868819

>  <r_i_glide_ligand_efficiency_ln>  (1) 
-1.4462275151401864

>  <r_i_glide_ligand_efficiency_sa>  (1) 
-0.73951243365261266

>  <r_i_glide_lipo>  (1) 
-1.7003429850095275

>  <r_i_glide_metal>  (1) 
-0

>  <r_i_glide_rewards>  (1) 
-2.5127934359602646

>  <r_lp_Energy>  (1) 
30.360168999999999

>  <r_lp_tautomer_probability>  (1) 
0.5

>  <s_epik_cmdline>  (1) 
J2VwaWtfcHl0aG9uJywgJy1waHQnLCAnMS4wJywgJy1waCcsICc3LjQnLCAnLXRuJywgJzgnLCAnLW1hJywgJzUwMCcsICctaW1hZScsICc8aW5maWxlLm1hZT4nLCAnLW9tYWUnLCAnPG91dGZpbGUubWFlPic=

>  <s_epik_input>  (1) 
Tz1DMVtDSF09W0NIXUMoXFtDQEhdMVtOSDJdKT1DKFtDSDNdKS9OKFtDSDNdKVtDSDJdL1tDSF09W0NIXVxbQ0BIXShbTkgyXSlbQ0gyXVtDSDJdW05IXUMoW0NIM10pKFtDSDNdKVtDSDNd

>  <s_glide_docking_method>  (1) 
confgen

>  <s_i_glide_gridfile>  (1) 
gpcr_drd2_6luq_protein_autoprepared_prepared

>  <s_lp_Force_Field>  (1) 
S-OPLS

>  <s_lp_Variant>  (1) 
DiffSBDD_27_num_sample_100-2

>  <s_m_source_file>  (1) 
generated__ligand_DiffSBDD_2026-05-06_prepared.sdf

>  <GenAI_Model>  (1) 
DiffSBDD

>  <Protein>  (1) 
generic_title2

$$$$
DiffSBDD_31_num_sample_100
     RDKit          3D

  0  0  0  0  0  0  0  0  0  0999 V3000
M  V30 BEGIN CTAB
M  V30 COUNTS 50 53 0 0 1
M  V30 BEGIN ATOM
M  V30 1 C 9.572485 6.905179 -11.881331 0
M  V30 2 C 9.939004 7.004845 -9.375860 0
M  V30 3 C 10.675360 7.639518 -7.170180 0
M  V30 4 O 12.633816 7.602788 -1.891962 0
M  V30 5 C 7.658003 2.238005 -14.475443 0
M  V30 6 C 7.316628 3.262574 -13.374507 0 CFG=1
M  V30 7 C 11.834711 8.773933 -5.282087 0
M  V30 8 N 9.506025 6.354302 -10.529374 0
M  V30 9 C 11.137261 7.662041 -5.783900 0
M  V30 10 O 13.035255 9.769280 -3.492220 0
M  V30 11 S 9.771643 6.266142 -7.795087 0
M  V30 12 C 12.339902 8.739920 -3.967685 0
M  V30 13 C 8.165401 7.041593 -12.489041 0
M  V30 14 C 7.928419 4.675703 -13.564740 0 CFG=1
M  V30 15 C 8.303610 4.180058 -16.022658 0 CFG=1
M  V30 16 N 10.925381 8.577614 -8.085828 0
M  V30 17 Cl 8.074356 4.808681 -17.674016 0
M  V30 18 C 8.889114 5.030993 -10.562987 0
M  V30 19 C 7.693900 5.159904 -15.012877 0
M  V30 20 N 10.515279 8.211085 -9.356480 0
M  V30 21 C 12.140364 7.623246 -3.157373 0
M  V30 22 C 10.923432 6.552161 -4.953197 0
M  V30 23 C 11.431977 6.533927 -3.644116 0
M  V30 24 C 7.407900 5.695090 -12.497709 0
M  V30 25 C 7.654699 2.794572 -15.908946 0
M  V30 26 C 7.444790 5.131503 -11.056138 0
M  V30 27 Cl 5.556646 3.406578 -13.171866 0
M  V30 28 H 10.047233 7.885967 -11.868462 0
M  V30 29 H 10.204432 6.271547 -12.504466 0
M  V30 30 H 12.493421 6.767345 -1.471675 0
M  V30 31 H 6.975083 1.390015 -14.411231 0
M  V30 32 H 8.634850 1.819137 -14.260328 0
M  V30 33 H 7.683692 2.828361 -12.445877 0
M  V30 34 H 12.009881 9.636006 -5.908103 0
M  V30 35 H 13.267914 9.634864 -2.581178 0
M  V30 36 H 7.597827 7.758211 -11.892309 0
M  V30 37 H 8.228205 7.479240 -13.482682 0
M  V30 38 H 9.005757 4.568172 -13.440060 0
M  V30 39 H 9.381060 4.107330 -15.867555 0
M  V30 40 H 9.474851 4.373291 -11.205773 0
M  V30 41 H 8.895039 4.562886 -9.582470 0
M  V30 42 H 6.625753 5.275240 -15.204965 0
M  V30 43 H 8.145615 6.136118 -15.174742 0
M  V30 44 H 10.382526 5.708035 -5.319494 0
M  V30 45 H 11.270432 5.676495 -3.015356 0
M  V30 46 H 6.369301 5.928622 -12.733191 0
M  V30 47 H 6.634699 2.857171 -16.264284 0
M  V30 48 H 8.154514 2.092126 -16.577529 0
M  V30 49 H 6.880553 5.769302 -10.381404 0
M  V30 50 H 6.944021 4.173265 -10.951317 0
M  V30 END ATOM
M  V30 BEGIN BOND
M  V30 1 1 6 5
M  V30 2 1 8 1
M  V30 3 1 8 2
M  V30 4 1 9 3
M  V30 5 2 9 7
M  V30 6 1 11 2
M  V30 7 1 11 3
M  V30 8 1 12 7
M  V30 9 1 12 10
M  V30 10 1 13 1
M  V30 11 1 14 6
M  V30 12 2 16 3
M  V30 13 1 17 15
M  V30 14 1 18 8
M  V30 15 1 19 14
M  V30 16 1 19 15
M  V30 17 2 20 2
M  V30 18 1 20 16
M  V30 19 1 21 4
M  V30 20 2 21 12
M  V30 21 1 22 9
M  V30 22 1 23 21
M  V30 23 2 23 22
M  V30 24 1 24 13
M  V30 25 1 24 14
M  V30 26 1 25 5
M  V30 27 1 25 15
M  V30 28 1 26 18
M  V30 29 1 26 24
M  V30 30 1 27 6
M  V30 31 1 28 1
M  V30 32 1 29 1
M  V30 33 1 30 4
M  V30 34 1 31 5
M  V30 35 1 32 5
M  V30 36 1 6 33 CFG=1
M  V30 37 1 34 7
M  V30 38 1 35 10
M  V30 39 1 36 13
M  V30 40 1 37 13
M  V30 41 1 14 38 CFG=1
M  V30 42 1 15 39 CFG=1
M  V30 43 1 40 18
M  V30 44 1 41 18
M  V30 45 1 42 19
M  V30 46 1 43 19
M  V30 47 1 44 22
M  V30 48 1 45 23
M  V30 49 1 46 24
M  V30 50 1 47 25
M  V30 51 1 48 25
M  V30 52 1 49 26
M  V30 53 1 50 26
M  V30 END BOND
M  V30 END CTAB
M  END
>  <i_epik_Tot_Q>  (1) 
0

>  <i_epik_Tot_abs_Q>  (1) 
0

>  <i_i_glide_confnum>  (1) 
18

>  <i_i_glide_lignum>  (1) 
57

>  <i_i_glide_posenum>  (1) 
41

>  <i_i_glide_rotatable_bonds>  (1) 
5

>  <i_lp_mmshare_version>  (1) 
72125

>  <i_m_source_file_index>  (1) 
32

>  <i_f3d_flags>  (1) 
0

>  <num_sample>  (1) 
100

>  <b_lp_Chiralities_Consistent>  (1) 
1

>  <r_epik_Charging_Adjusted_Penalty>  (1) 
0.030402742638392096

>  <r_epik_Ionization_Penalty>  (1) 
0.030794834145842404

>  <r_epik_Ionization_Penalty_Charging>  (1) 
0

>  <r_epik_Ionization_Penalty_Neutral>  (1) 
0.030794834145842404

>  <r_epik_State_Penalty>  (1) 
0.030402742638392096

>  <r_glide_ring_energy>  (1) 
1.8967887167309052

>  <r_i_docking_score>  (1) 
-5.979076761980159

>  <r_i_glide_ecoul>  (1) 
-4.6687661766609692

>  <r_i_glide_eff_state_penalty>  (1) 
0.030402742638392096

>  <r_i_glide_einternal>  (1) 
7.7365845097136079

>  <r_i_glide_emodel>  (1) 
-45.07686875047267

>  <r_i_glide_emodel_strain>  (1) 
0.042111681464518824

>  <r_i_glide_energy>  (1) 
-39.69140352458701

>  <r_i_glide_erotb>  (1) 
0.32471647886420552

>  <r_i_glide_esite>  (1) 
-0.094139571806890768

>  <r_i_glide_evdw>  (1) 
-35.022637347926043

>  <r_i_glide_gscore>  (1) 
-6.0094795046185512

>  <r_i_glide_gscore_strain>  (1) 
0

>  <r_i_glide_hbond>  (1) 
-0.12381079788452846

>  <r_i_glide_ligand_efficiency>  (1) 
-0.22144728748074663

>  <r_i_glide_ligand_efficiency_ln>  (1) 
-1.3918304974046782

>  <r_i_glide_ligand_efficiency_sa>  (1) 
-0.66434186244224003

>  <r_i_glide_lipo>  (1) 
-2.4095233794797695

>  <r_i_glide_metal>  (1) 
-0

>  <r_i_glide_rewards>  (1) 
-1.2552754404161199

>  <r_lp_Energy>  (1) 
32.143867

>  <r_lp_tautomer_probability>  (1) 
0.99999999999977596

>  <s_epik_cmdline>  (1) 
J2VwaWtfcHl0aG9uJywgJy1waHQnLCAnMS4wJywgJy1waCcsICc3LjQnLCAnLXRuJywgJzgnLCAnLW1hJywgJzUwMCcsICctaW1hZScsICc8aW5maWxlLm1hZT4nLCAnLW9tYWUnLCAnPG91dGZpbGUubWFlPic=

>  <s_epik_input>  (1) 
Q2xbQ0BIXTFbQ0gyXVtDSDJdW0NASF0oQ2wpW0NIMl1bQ0BIXTFbQ0hdKFtDSDJdW0NIMl0yKVtDSDJdW0NIMl1OMmMzc2Mobm4zKS1jNFtjSF1jKFtPSF0pYyhbT0hdKVtjSF1bY0hdNA==

>  <s_glide_docking_method>  (1) 
confgen

>  <s_i_glide_gridfile>  (1) 
gpcr_drd2_6luq_protein_autoprepared_prepared

>  <s_lp_Force_Field>  (1) 
S-OPLS

>  <s_lp_Variant>  (1) 
DiffSBDD_31_num_sample_100-2

>  <s_m_source_file>  (1) 
generated__ligand_DiffSBDD_2026-05-06_prepared.sdf

>  <GenAI_Model>  (1) 
DiffSBDD

>  <Protein>  (1) 
generic_title2

$$$$
DiffSBDD_16_num_sample_100
     RDKit          3D

  0  0  0  0  0  0  0  0  0  0999 V3000
M  V30 BEGIN CTAB
M  V30 COUNTS 54 57 0 0 1
M  V30 BEGIN ATOM
M  V30 1 C 6.946972 5.053693 -14.460574 0
M  V30 2 C 5.235690 5.645571 -11.423691 0
M  V30 3 C 11.423664 6.388333 -5.621984 0
M  V30 4 C 11.435634 6.641150 -7.004055 0
M  V30 5 C 9.542308 6.849437 -9.774253 0
M  V30 6 C 6.106164 7.761487 -14.918175 0 CFG=1
M  V30 7 C 6.642554 5.550832 -11.956155 0 CFG=1
M  V30 8 C 11.433918 7.455667 -4.710092 0
M  V30 9 C 11.473290 9.037698 -6.562623 0
M  V30 10 C 11.479899 7.967333 -7.478107 0
M  V30 11 C 9.925790 5.924703 -12.082642 0
M  V30 12 C 11.444951 8.781186 -5.179907 0
M  V30 13 C 5.614701 6.580474 -15.768828 0 CFG=1
M  V30 14 C 11.566201 8.242854 -8.968727 0
M  V30 15 C 10.237835 8.222534 -9.730511 0
M  V30 16 N 11.436078 9.836757 -4.278977 0
M  V30 17 C 7.480468 4.414595 -11.424266 0
M  V30 18 C 8.879007 6.567078 -11.138349 0 CFG=1
M  V30 19 C 5.300669 7.978026 -16.174276 0
M  V30 20 O 5.815599 7.094874 -13.689306 0
M  V30 21 C 6.859864 6.155268 -13.360174 0 CFG=2
M  V30 22 C 6.785149 5.638907 -15.878095 0
M  V30 23 N 7.644663 5.768899 -10.911475 0 CFG=1 CHG=1
M  V30 24 H 7.883673 4.499305 -14.386514 0
M  V30 25 H 6.145442 4.333493 -14.289977 0
M  V30 26 H 4.634883 4.955424 -12.006323 0
M  V30 27 H 5.175676 5.327785 -10.383137 0
M  V30 28 H 4.849917 6.663671 -11.482526 0
M  V30 29 H 11.413612 5.371133 -5.260786 0
M  V30 30 H 11.438613 5.816466 -7.698008 0
M  V30 31 H 10.234529 6.040845 -9.559050 0
M  V30 32 H 8.831962 6.802368 -8.948152 0
M  V30 33 H 7.137086 8.108997 -14.974169 0
M  V30 34 H 11.429514 7.256912 -3.648534 0
M  V30 35 H 11.502546 10.054518 -6.921099 0
M  V30 36 H 10.816369 6.549212 -12.151586 0
M  V30 37 H 10.243934 4.954296 -11.703349 0
M  V30 38 H 9.589549 5.762505 -13.103589 0
M  V30 39 H 4.709406 6.052489 -15.475675 0
M  V30 40 H 12.038257 9.216111 -9.109955 0
M  V30 41 H 12.250838 7.519447 -9.413212 0
M  V30 42 H 9.552489 8.968686 -9.325875 0
M  V30 43 H 10.453650 8.554302 -10.745871 0
M  V30 44 H 11.452721 9.681326 -3.281301 0
M  V30 45 H 11.452113 10.796180 -4.592908 0
M  V30 46 H 8.294539 4.013604 -12.018703 0
M  V30 47 H 7.047940 3.777015 -10.655326 0
M  V30 48 H 8.548066 7.528303 -11.534918 0
M  V30 49 H 4.277808 8.327848 -16.051298 0
M  V30 50 H 5.821389 8.381277 -17.038853 0
M  V30 51 H 7.768222 6.740956 -13.392339 0
M  V30 52 H 6.591026 4.857527 -16.610100 0
M  V30 53 H 7.685805 6.162099 -16.195125 0
M  V30 54 H 7.156324 6.019737 -10.056716 0
M  V30 END ATOM
M  V30 BEGIN BOND
M  V30 1 1 4 3
M  V30 2 1 7 2 CFG=1
M  V30 3 2 8 3
M  V30 4 2 10 4
M  V30 5 1 10 9
M  V30 6 1 12 8
M  V30 7 2 12 9
M  V30 8 1 13 6
M  V30 9 1 14 10
M  V30 10 1 15 5
M  V30 11 1 15 14
M  V30 12 1 16 12
M  V30 13 1 17 7
M  V30 14 1 18 5
M  V30 15 1 18 11
M  V30 16 1 19 6
M  V30 17 1 19 13
M  V30 18 1 20 6
M  V30 19 1 21 1
M  V30 20 1 21 7
M  V30 21 1 21 20
M  V30 22 1 22 1
M  V30 23 1 22 13
M  V30 24 1 23 7
M  V30 25 1 23 17
M  V30 26 1 23 18
M  V30 27 1 24 1
M  V30 28 1 25 1
M  V30 29 1 26 2
M  V30 30 1 27 2
M  V30 31 1 28 2
M  V30 32 1 29 3
M  V30 33 1 30 4
M  V30 34 1 31 5
M  V30 35 1 32 5
M  V30 36 1 6 33 CFG=1
M  V30 37 1 34 8
M  V30 38 1 35 9
M  V30 39 1 36 11
M  V30 40 1 37 11
M  V30 41 1 38 11
M  V30 42 1 13 39 CFG=1
M  V30 43 1 40 14
M  V30 44 1 41 14
M  V30 45 1 42 15
M  V30 46 1 43 15
M  V30 47 1 44 16
M  V30 48 1 45 16
M  V30 49 1 46 17
M  V30 50 1 47 17
M  V30 51 1 18 48 CFG=3
M  V30 52 1 49 19
M  V30 53 1 50 19
M  V30 54 1 21 51 CFG=1
M  V30 55 1 52 22
M  V30 56 1 53 22
M  V30 57 1 23 54 CFG=1
M  V30 END BOND
M  V30 END CTAB
M  END
>  <i_epik_Tot_Q>  (1) 
1

>  <i_epik_Tot_abs_Q>  (1) 
1

>  <i_i_glide_confnum>  (1) 
190

>  <i_i_glide_lignum>  (1) 
26

>  <i_i_glide_posenum>  (1) 
285

>  <i_i_glide_rotatable_bonds>  (1) 
6

>  <i_lp_mmshare_version>  (1) 
72125

>  <i_m_source_file_index>  (1) 
17

>  <i_f3d_flags>  (1) 
0

>  <num_sample>  (1) 
100

>  <b_lp_Chiralities_Consistent>  (1) 
1

>  <r_epik_Charging_Adjusted_Penalty>  (1) 
0.11272327168216571

>  <r_epik_Ionization_Penalty>  (1) 
0.057493963086777844

>  <r_epik_Ionization_Penalty_Charging>  (1) 
0.056361635841082856

>  <r_epik_Ionization_Penalty_Neutral>  (1) 
0.0011323272456949893

>  <r_epik_State_Penalty>  (1) 
0.056361635841082856

>  <r_glide_ring_energy>  (1) 
0

>  <r_i_docking_score>  (1) 
-5.9773543570854146

>  <r_i_glide_ecoul>  (1) 
-5.4179027911263491

>  <r_i_glide_eff_state_penalty>  (1) 
0.056361635841082856

>  <r_i_glide_einternal>  (1) 
16.517923498772156

>  <r_i_glide_emodel>  (1) 
-34.762985955950995

>  <r_i_glide_emodel_strain>  (1) 
1.8424211118403946

>  <r_i_glide_energy>  (1) 
-30.978408621998433

>  <r_i_glide_erotb>  (1) 
1.1214719841998091

>  <r_i_glide_esite>  (1) 
-0.10000000000000001

>  <r_i_glide_evdw>  (1) 
-25.560505830872085

>  <r_i_glide_gscore>  (1) 
-6.0337159929264974

>  <r_i_glide_gscore_strain>  (1) 
0

>  <r_i_glide_hbond>  (1) 
-0.10164563459897261

>  <r_i_glide_ligand_efficiency>  (1) 
-0.25988497204719196

>  <r_i_glide_ligand_efficiency_ln>  (1) 
-1.4453784831959779

>  <r_i_glide_ligand_efficiency_sa>  (1) 
-0.73907829056465624

>  <r_i_glide_lipo>  (1) 
-2.7047602914056856

>  <r_i_glide_metal>  (1) 
-0

>  <r_i_glide_rewards>  (1) 
-2.1580713409090908

>  <r_lp_Energy>  (1) 
57.573436999999998

>  <s_epik_cmdline>  (1) 
J2VwaWtfcHl0aG9uJywgJy1waHQnLCAnMS4wJywgJy1waCcsICc3LjQnLCAnLXRuJywgJzgnLCAnLW1hJywgJzUwMCcsICctaW1hZScsICc8aW5maWxlLm1hZT4nLCAnLW9tYWUnLCAnPG91dGZpbGUubWFlPic=

>  <s_epik_input>  (1) 
W0NIXTEyW0NIXShbQ0gyXTEpW0NIMl1bQ0gyXVtDQEBIXShPMilbQ0BAXTMoW0NIM10pW0NIMl1OM1tDQEhdKFtDSDNdKVtDSDJdW0NIMl1bQ0gyXWM0W2NIXVtjSF1bY0hdYyhbY0hdNClbTkgyXQ==

>  <s_glide_docking_method>  (1) 
confgen

>  <s_i_glide_gridfile>  (1) 
gpcr_drd2_6luq_protein_autoprepared_prepared

>  <s_lp_Force_Field>  (1) 
S-OPLS

>  <s_lp_Variant>  (1) 
DiffSBDD_16_num_sample_100-1

>  <s_m_source_file>  (1) 
generated__ligand_DiffSBDD_2026-05-06_prepared.sdf

>  <GenAI_Model>  (1) 
DiffSBDD

>  <Protein>  (1) 
generic_title2

$$$$
DiffSBDD_17_num_sample_100
     RDKit          3D

  0  0  0  0  0  0  0  0  0  0999 V3000
M  V30 BEGIN CTAB
M  V30 COUNTS 55 57 0 0 1
M  V30 BEGIN ATOM
M  V30 1 N 7.998307 6.169301 -13.562074 0
M  V30 2 C 8.953009 5.198536 -10.534783 0
M  V30 3 C 12.210285 7.172509 -2.458258 0
M  V30 4 C 10.978741 8.017938 -6.914008 0
M  V30 5 C 11.434839 9.307606 -6.522553 0
M  V30 6 C 6.022097 6.059978 -16.868041 0
M  V30 7 N 12.234839 8.564526 -2.988703 0
M  V30 8 C 6.886019 4.986477 -17.550099 0
M  V30 9 C 11.434839 7.244508 -4.651260 0
M  V30 10 F 9.096779 4.289967 -17.888512 0
M  V30 11 N 9.573200 6.426717 -10.058123 0
M  V30 12 C 8.709963 5.268496 -15.788168 0
M  V30 13 C 6.431386 6.294905 -15.425418 0
M  V30 14 C 11.843972 8.471339 -4.291667 0
M  V30 15 O 6.045201 5.847623 -12.291737 0
M  V30 16 C 9.420049 4.784942 -11.949220 0 CFG=2
M  V30 17 C 7.636423 5.943638 -14.917238 0
M  V30 18 C 9.336081 5.897064 -13.016060 0
M  V30 19 C 10.031266 6.625139 -8.768368 0
M  V30 20 C 8.745343 3.484483 -12.407761 0
M  V30 21 C 10.986565 6.968587 -5.954547 0
M  V30 22 C 11.506887 6.228597 -3.565801 0
M  V30 23 N 7.048619 6.814770 -12.726705 0
M  V30 24 C 11.868774 9.533472 -5.199537 0
M  V30 25 C 8.370862 5.234872 -17.291489 0 CFG=2
M  V30 26 C 10.501600 7.797116 -8.298884 0
M  V30 27 H 7.871911 5.332040 -10.508405 0
M  V30 28 H 9.174890 4.392141 -9.835708 0
M  V30 29 H 11.680769 7.129617 -1.506545 0
M  V30 30 H 13.232415 6.839311 -2.291667 0
M  V30 31 H 11.443705 10.114757 -7.231662 0
M  V30 32 H 4.972057 5.769303 -16.898669 0
M  V30 33 H 6.101094 7.007977 -17.400873 0
M  V30 34 H 13.004860 9.177822 -2.757907 0
M  V30 35 H 6.634839 3.999268 -17.165823 0
M  V30 36 H 6.681919 4.964822 -18.621102 0
M  V30 37 H 9.672801 5.769302 -15.718285 0
M  V30 38 H 8.837462 4.246965 -15.432699 0
M  V30 39 H 5.697661 6.773589 -14.795718 0
M  V30 40 H 5.269485 6.387757 -12.265177 0
M  V30 41 H 10.484449 4.564332 -11.885536 0
M  V30 42 H 10.066602 5.640038 -13.774103 0
M  V30 43 H 9.717172 6.832083 -12.607407 0
M  V30 44 H 9.973528 5.741560 -8.152873 0
M  V30 45 H 7.658463 3.565897 -12.386041 0
M  V30 46 H 9.034839 3.229069 -13.422924 0
M  V30 47 H 9.034839 2.647582 -11.776525 0
M  V30 48 H 10.655650 5.976490 -6.214502 0
M  V30 49 H 10.508612 5.909963 -3.269772 0
M  V30 50 H 12.123686 5.376042 -3.840889 0
M  V30 51 H 7.473854 7.028561 -11.823674 0
M  V30 52 H 12.207718 10.509582 -4.895362 0
M  V30 53 H 8.665291 6.169302 -17.765577 0
M  V30 54 H 10.536639 8.649960 -8.961260 0
M  V30 55 H 9.526472 7.222726 -10.676091 0
M  V30 END ATOM
M  V30 BEGIN BOND
M  V30 1 1 5 4
M  V30 2 1 7 3
M  V30 3 1 8 6
M  V30 4 1 11 2
M  V30 5 1 13 6
M  V30 6 1 14 7
M  V30 7 2 14 9
M  V30 8 1 16 2
M  V30 9 1 17 1
M  V30 10 1 17 12
M  V30 11 2 17 13
M  V30 12 1 18 1
M  V30 13 1 18 16
M  V30 14 1 19 11
M  V30 15 1 20 16
M  V30 16 2 21 4
M  V30 17 1 21 9
M  V30 18 1 22 3
M  V30 19 1 22 9
M  V30 20 1 23 1
M  V30 21 1 23 15
M  V30 22 2 24 5
M  V30 23 1 24 14
M  V30 24 1 25 8
M  V30 25 1 25 10
M  V30 26 1 25 12
M  V30 27 1 26 4
M  V30 28 2 26 19
M  V30 29 1 27 2
M  V30 30 1 28 2
M  V30 31 1 29 3
M  V30 32 1 30 3
M  V30 33 1 31 5
M  V30 34 1 32 6
M  V30 35 1 33 6
M  V30 36 1 34 7
M  V30 37 1 35 8
M  V30 38 1 36 8
M  V30 39 1 37 12
M  V30 40 1 38 12
M  V30 41 1 39 13
M  V30 42 1 40 15
M  V30 43 1 16 41 CFG=1
M  V30 44 1 42 18
M  V30 45 1 43 18
M  V30 46 1 44 19
M  V30 47 1 45 20
M  V30 48 1 46 20
M  V30 49 1 47 20
M  V30 50 1 48 21
M  V30 51 1 49 22
M  V30 52 1 50 22
M  V30 53 1 51 23
M  V30 54 1 52 24
M  V30 55 1 25 53 CFG=3
M  V30 56 1 54 26
M  V30 57 1 55 11
M  V30 END BOND
M  V30 END CTAB
M  END
>  <i_epik_Tot_Q>  (1) 
0

>  <i_epik_Tot_abs_Q>  (1) 
0

>  <i_i_glide_confnum>  (1) 
92

>  <i_i_glide_lignum>  (1) 
29

>  <i_i_glide_posenum>  (1) 
121

>  <i_i_glide_rotatable_bonds>  (1) 
9

>  <i_lp_mmshare_version>  (1) 
72125

>  <i_m_source_file_index>  (1) 
18

>  <i_f3d_flags>  (1) 
0

>  <num_sample>  (1) 
100

>  <b_lp_Chiralities_Consistent>  (1) 
1

>  <r_epik_Charging_Adjusted_Penalty>  (1) 
0

>  <r_epik_Ionization_Penalty>  (1) 
0.026997388265497368

>  <r_epik_Ionization_Penalty_Charging>  (1) 
0

>  <r_epik_Ionization_Penalty_Neutral>  (1) 
0.026997388265497368

>  <r_epik_State_Penalty>  (1) 
-0

>  <r_glide_ring_energy>  (1) 
0

>  <r_i_docking_score>  (1) 
-5.9722611912138426

>  <r_i_glide_ecoul>  (1) 
-1.8361956561916923

>  <r_i_glide_eff_state_penalty>  (1) 
-0

>  <r_i_glide_einternal>  (1) 
6.4407214181473984

>  <r_i_glide_emodel>  (1) 
-47.614020147449502

>  <r_i_glide_emodel_strain>  (1) 
0

>  <r_i_glide_energy>  (1) 
-36.607068075721855

>  <r_i_glide_erotb>  (1) 
0.88558064458011865

>  <r_i_glide_esite>  (1) 
-0.14679995667642837

>  <r_i_glide_evdw>  (1) 
-34.770872419530164

>  <r_i_glide_gscore>  (1) 
-5.9722611912138426

>  <r_i_glide_gscore_strain>  (1) 
0

>  <r_i_glide_hbond>  (1) 
0

>  <r_i_glide_ligand_efficiency>  (1) 
-0.22970235350822471

>  <r_i_glide_ligand_efficiency_ln>  (1) 
-1.4025659441692331

>  <r_i_glide_ligand_efficiency_sa>  (1) 
-0.68049231917203579

>  <r_i_glide_lipo>  (1) 
-3.0231038775909878

>  <r_i_glide_metal>  (1) 
-0

>  <r_i_glide_rewards>  (1) 
-1.6739650321212838

>  <r_lp_Energy>  (1) 
10.435043

>  <r_lp_tautomer_probability>  (1) 
1

>  <s_epik_Chemistry_Notes>  (1) 
This compound has a N-S or N-O group and may undergo hydrolysis at high or low pH.

>  <s_epik_cmdline>  (1) 
J2VwaWtfcHl0aG9uJywgJy1waHQnLCAnMS4wJywgJy1waCcsICc3LjQnLCAnLXRuJywgJzgnLCAnLW1hJywgJzUwMCcsICctaW1hZScsICc8aW5maWxlLm1hZT4nLCAnLW9tYWUnLCAnPG91dGZpbGUubWFlPic=

>  <s_epik_input>  (1) 
RltDQEhdKFtDSDJdMSlbQ0gyXVtDSDJdW0NIXT1DMU4oW05IXVtPSF0pW0NIMl1bQ0BIXShbQ0gzXSlbQ0gyXVtOSF0vW0NIXT1bQ0hdL2MoW2NIXTIpW2NIXVtjSF1jKGMyMylbTkhdW0NIMl1bQ0gyXTM=

>  <s_glide_docking_method>  (1) 
confgen

>  <s_i_glide_gridfile>  (1) 
gpcr_drd2_6luq_protein_autoprepared_prepared

>  <s_lp_Force_Field>  (1) 
S-OPLS

>  <s_lp_Variant>  (1) 
DiffSBDD_17_num_sample_100-2

>  <s_m_source_file>  (1) 
generated__ligand_DiffSBDD_2026-05-06_prepared.sdf

>  <GenAI_Model>  (1) 
DiffSBDD

>  <Protein>  (1) 
generic_title2

$$$$
DiffSBDD_27_num_sample_100
     RDKit          3D

  0  0  0  0  0  0  0  0  0  0999 V3000
M  V30 BEGIN CTAB
M  V30 COUNTS 57 57 0 0 1
M  V30 BEGIN ATOM
M  V30 1 C 8.089127 4.664035 -17.674843 0 CFG=2
M  V30 2 C 8.306550 6.832917 -11.937907 0
M  V30 3 N 7.435435 3.355338 -17.652182 0
M  V30 4 C 9.076959 8.473371 -6.909042 0
M  V30 5 C 7.829806 6.075876 -19.563270 0
M  V30 6 C 6.500599 6.498949 -13.683196 0
M  V30 7 N 8.234944 5.769285 -9.743683 0 CHG=1
M  V30 8 C 10.923045 7.191333 -9.037424 0
M  V30 9 C 10.580840 8.234294 -6.725419 0
M  V30 10 C 10.787764 6.895912 -5.980569 0
M  V30 11 C 9.125720 6.417506 -10.723258 0 CFG=2
M  V30 12 C 9.849629 7.617955 -10.066616 0
M  V30 13 C 7.105599 5.855308 -17.368483 0
M  V30 14 C 7.246015 4.394848 -14.773683 0
M  V30 15 C 8.618960 4.956394 -19.136907 0
M  V30 16 O 9.471517 4.339001 -19.771563 0
M  V30 17 C 6.613610 6.376375 -16.204777 0
M  V30 18 N 11.273078 8.244983 -8.048363 0 CHG=1
M  V30 19 N 6.794578 5.777078 -14.934010 0
M  V30 20 C 7.044263 6.532299 -18.627287 0
M  V30 21 C 5.823461 7.690951 -16.187140 0
M  V30 22 C 11.178083 9.360399 -5.857356 0
M  V30 23 C 7.318925 6.088368 -12.469641 0
M  V30 24 H 8.928473 4.680439 -16.980400 0
M  V30 25 H 8.552563 7.786009 -12.384215 0
M  V30 26 H 6.694850 3.303448 -18.337380 0
M  V30 27 H 8.087475 2.621189 -17.892139 0
M  V30 28 H 8.864876 9.369278 -7.491831 0
M  V30 29 H 8.634742 7.625643 -7.425549 0
M  V30 30 H 8.562068 8.569219 -5.953787 0
M  V30 31 H 7.899377 6.477461 -20.563348 0
M  V30 32 H 6.691383 7.562275 -13.824257 0
M  V30 33 H 5.441573 6.392404 -13.444467 0
M  V30 34 H 7.757244 4.984418 -10.158551 0
M  V30 35 H 8.729414 5.477937 -8.915977 0
M  V30 36 H 10.653673 6.260321 -8.545190 0
M  V30 37 H 11.835633 6.969289 -9.589327 0
M  V30 38 H 11.834838 6.605127 -5.938959 0
M  V30 39 H 10.430705 6.960771 -4.952534 0
M  V30 40 H 10.236240 6.072512 -6.432356 0
M  V30 41 H 9.858389 5.687884 -11.067642 0
M  V30 42 H 10.340150 8.212946 -10.838224 0
M  V30 43 H 9.109292 8.283520 -9.623964 0
M  V30 44 H 6.643739 3.743958 -15.401277 0
M  V30 45 H 8.302140 4.281995 -15.012980 0
M  V30 46 H 7.093596 3.992630 -13.775725 0
M  V30 47 H 12.259207 8.148416 -7.853013 0
M  V30 48 H 6.388331 7.369293 -18.798948 0
M  V30 49 H 5.178461 7.769157 -17.060824 0
M  V30 50 H 5.140121 7.790266 -15.345439 0
M  V30 51 H 6.500189 8.545473 -16.187637 0
M  V30 52 H 11.034867 10.348695 -6.291797 0
M  V30 53 H 10.715629 9.385885 -4.870392 0
M  V30 54 H 12.248654 9.222810 -5.705197 0
M  V30 55 H 7.071863 5.136344 -12.025574 0
M  V30 56 H 11.135869 9.146859 -8.481438 0
M  V30 57 H 7.537466 6.485323 -9.491520 0
M  V30 END ATOM
M  V30 BEGIN BOND
M  V30 1 1 3 1
M  V30 2 1 9 4
M  V30 3 1 10 9
M  V30 4 1 11 2
M  V30 5 1 11 7
M  V30 6 1 12 8
M  V30 7 1 12 11
M  V30 8 1 13 1
M  V30 9 1 15 1
M  V30 10 1 15 5
M  V30 11 2 16 15
M  V30 12 2 17 13
M  V30 13 1 18 8
M  V30 14 1 18 9
M  V30 15 1 19 6
M  V30 16 1 19 14
M  V30 17 1 19 17
M  V30 18 2 20 5
M  V30 19 1 20 13
M  V30 20 1 21 17
M  V30 21 1 22 9
M  V30 22 2 23 2
M  V30 23 1 23 6
M  V30 24 1 1 24 CFG=1
M  V30 25 1 25 2
M  V30 26 1 26 3
M  V30 27 1 27 3
M  V30 28 1 28 4
M  V30 29 1 29 4
M  V30 30 1 30 4
M  V30 31 1 31 5
M  V30 32 1 32 6
M  V30 33 1 33 6
M  V30 34 1 34 7
M  V30 35 1 35 7
M  V30 36 1 36 8
M  V30 37 1 37 8
M  V30 38 1 38 10
M  V30 39 1 39 10
M  V30 40 1 40 10
M  V30 41 1 11 41 CFG=3
M  V30 42 1 42 12
M  V30 43 1 43 12
M  V30 44 1 44 14
M  V30 45 1 45 14
M  V30 46 1 46 14
M  V30 47 1 47 18
M  V30 48 1 48 20
M  V30 49 1 49 21
M  V30 50 1 50 21
M  V30 51 1 51 21
M  V30 52 1 52 22
M  V30 53 1 53 22
M  V30 54 1 54 22
M  V30 55 1 55 23
M  V30 56 1 56 18
M  V30 57 1 57 7
M  V30 END BOND
M  V30 END CTAB
M  END
>  <i_epik_Tot_Q>  (1) 
2

>  <i_epik_Tot_abs_Q>  (1) 
2

>  <i_i_glide_confnum>  (1) 
307

>  <i_i_glide_lignum>  (1) 
45

>  <i_i_glide_posenum>  (1) 
48

>  <i_i_glide_rotatable_bonds>  (1) 
8

>  <i_lp_mmshare_version>  (1) 
72125

>  <i_m_source_file_index>  (1) 
28

>  <i_f3d_flags>  (1) 
0

>  <num_sample>  (1) 
100

>  <b_lp_Chiralities_Consistent>  (1) 
1

>  <r_epik_Charging_Adjusted_Penalty>  (1) 
0.47954930221194114

>  <r_epik_Ionization_Penalty>  (1) 
0.082650424812652987

>  <r_epik_Ionization_Penalty_Charging>  (1) 
0.068869463259337155

>  <r_epik_Ionization_Penalty_Neutral>  (1) 
0.013780961553315832

>  <r_epik_State_Penalty>  (1) 
0.41067983895260396

>  <r_glide_ring_energy>  (1) 
0

>  <r_i_docking_score>  (1) 
-5.9705860316748645

>  <r_i_glide_ecoul>  (1) 
-7.4189946084480081

>  <r_i_glide_eff_state_penalty>  (1) 
0.41067983895260396

>  <r_i_glide_einternal>  (1) 
12.019196012759519

>  <r_i_glide_emodel>  (1) 
-51.55366589378248

>  <r_i_glide_emodel_strain>  (1) 
0.35403708467511308

>  <r_i_glide_energy>  (1) 
-33.015818392243958

>  <r_i_glide_erotb>  (1) 
0.88107071462136088

>  <r_i_glide_esite>  (1) 
-0.10000000000000001

>  <r_i_glide_evdw>  (1) 
-25.596823783795951

>  <r_i_glide_gscore>  (1) 
-6.3812658706274688

>  <r_i_glide_gscore_strain>  (1) 
0

>  <r_i_glide_hbond>  (1) 
-0.17598333125985083

>  <r_i_glide_ligand_efficiency>  (1) 
-0.25959069702934195

>  <r_i_glide_ligand_efficiency_ln>  (1) 
-1.4437418407399252

>  <r_i_glide_ligand_efficiency_sa>  (1) 
-0.7382414115583974

>  <r_i_glide_lipo>  (1) 
-1.9665053230556904

>  <r_i_glide_metal>  (1) 
-0

>  <r_i_glide_rewards>  (1) 
-2.6271575504762881

>  <r_lp_Energy>  (1) 
26.442719

>  <r_lp_tautomer_probability>  (1) 
0.5

>  <s_epik_cmdline>  (1) 
J2VwaWtfcHl0aG9uJywgJy1waHQnLCAnMS4wJywgJy1waCcsICc3LjQnLCAnLXRuJywgJzgnLCAnLW1hJywgJzUwMCcsICctaW1hZScsICc8aW5maWxlLm1hZT4nLCAnLW9tYWUnLCAnPG91dGZpbGUubWFlPic=

>  <s_epik_input>  (1) 
Tz1DMVtDSF09W0NIXUMoXFtDQEhdMVtOSDJdKT1DKFtDSDNdKVxOKFtDSDNdKVtDSDJdXFtDSF09W0NIXVxbQ0BIXShbTkgyXSlbQ0gyXVtDSDJdW05IXUMoW0NIM10pKFtDSDNdKVtDSDNd

>  <s_glide_docking_method>  (1) 
confgen

>  <s_i_glide_gridfile>  (1) 
gpcr_drd2_6luq_protein_autoprepared_prepared

>  <s_lp_Force_Field>  (1) 
S-OPLS

>  <s_lp_Variant>  (1) 
DiffSBDD_27_num_sample_100-3

>  <s_m_source_file>  (1) 
generated__ligand_DiffSBDD_2026-05-06_prepared.sdf

>  <GenAI_Model>  (1) 
DiffSBDD

>  <Protein>  (1) 
generic_title2

$$$$
DiffSBDD_28_num_sample_100
     RDKit          3D

  0  0  0  0  0  0  0  0  0  0999 V3000
M  V30 BEGIN CTAB
M  V30 COUNTS 43 44 0 0 1
M  V30 BEGIN ATOM
M  V30 1 C 11.459628 6.575378 -2.521262 0
M  V30 2 C 8.059419 6.156298 -12.144220 0
M  V30 3 C 11.136897 6.494175 -4.033258 0
M  V30 4 N 10.324081 6.717254 -6.803324 0
M  V30 5 C 12.487816 8.843416 -2.825139 0
M  V30 6 C 9.940828 6.704892 -8.026722 0
M  V30 7 C 12.051669 8.813877 -4.274467 0
M  V30 8 O 9.928724 7.839319 -10.194884 0
M  V30 9 C 9.032809 5.186961 -10.071582 0
M  V30 10 C 6.643613 4.902721 -10.559602 0
M  V30 11 C 9.092752 5.526558 -8.556961 0
M  V30 12 C 7.026823 7.180995 -12.634571 0
M  V30 13 C 11.399689 8.805655 -7.113053 0
M  V30 14 N 11.034841 8.819777 -8.462202 0
M  V30 15 N 7.833893 5.769299 -10.726810 0 CFG=2 CHG=1
M  V30 16 C 12.687819 7.435027 -2.273474 0
M  V30 17 C 10.291635 7.840019 -9.023021 0
M  V30 18 C 11.059622 7.790972 -6.283550 0
M  V30 19 C 11.434832 7.754876 -4.856176 0
M  V30 20 H 10.634942 6.969262 -1.928358 0
M  V30 21 H 11.638896 5.576214 -2.132293 0
M  V30 22 H 9.044843 6.607609 -12.259207 0
M  V30 23 H 8.058543 5.271436 -12.782307 0
M  V30 24 H 10.106303 6.169300 -4.176843 0
M  V30 25 H 11.762767 5.719827 -4.471639 0
M  V30 26 H 13.434869 9.369319 -2.758256 0
M  V30 27 H 11.759996 9.404418 -2.237848 0
M  V30 28 H 12.261389 9.701531 -4.843951 0
M  V30 29 H 9.948283 5.472335 -10.578416 0
M  V30 30 H 9.002562 4.110313 -10.217595 0
M  V30 31 H 6.640642 4.085478 -11.281633 0
M  V30 32 H 6.634830 4.453859 -9.567338 0
M  V30 33 H 5.723459 5.474727 -10.680378 0
M  V30 34 H 9.466185 4.633438 -8.056317 0
M  V30 35 H 8.083335 5.651709 -8.163365 0
M  V30 36 H 7.253928 7.499108 -13.652458 0
M  V30 37 H 6.015172 6.775159 -12.636809 0
M  V30 38 H 7.032454 8.070126 -12.001925 0
M  V30 39 H 11.968102 9.669758 -6.814298 0
M  V30 40 H 11.327019 9.608306 -9.019942 0
M  V30 41 H 12.951274 7.474387 -1.216845 0
M  V30 42 H 13.521215 6.969533 -2.792159 0
M  V30 43 H 7.622502 6.643753 -10.227457 0
M  V30 END ATOM
M  V30 BEGIN BOND
M  V30 1 1 3 1
M  V30 2 2 6 4
M  V30 3 1 7 5
M  V30 4 1 11 6
M  V30 5 1 11 9
M  V30 6 1 12 2
M  V30 7 1 14 13
M  V30 8 1 15 2
M  V30 9 1 15 9
M  V30 10 1 15 10
M  V30 11 1 16 1
M  V30 12 1 16 5
M  V30 13 1 17 6
M  V30 14 2 17 8
M  V30 15 1 17 14
M  V30 16 1 18 4
M  V30 17 2 18 13
M  V30 18 1 19 3
M  V30 19 2 19 7
M  V30 20 1 19 18
M  V30 21 1 20 1
M  V30 22 1 21 1
M  V30 23 1 22 2
M  V30 24 1 23 2
M  V30 25 1 24 3
M  V30 26 1 25 3
M  V30 27 1 26 5
M  V30 28 1 27 5
M  V30 29 1 28 7
M  V30 30 1 29 9
M  V30 31 1 30 9
M  V30 32 1 31 10
M  V30 33 1 32 10
M  V30 34 1 33 10
M  V30 35 1 34 11
M  V30 36 1 35 11
M  V30 37 1 36 12
M  V30 38 1 37 12
M  V30 39 1 38 12
M  V30 40 1 39 13
M  V30 41 1 40 14
M  V30 42 1 41 16
M  V30 43 1 42 16
M  V30 44 1 15 43 CFG=1
M  V30 END BOND
M  V30 END CTAB
M  END
>  <i_epik_Tot_Q>  (1) 
1

>  <i_epik_Tot_abs_Q>  (1) 
1

>  <i_i_glide_confnum>  (1) 
86

>  <i_i_glide_lignum>  (1) 
48

>  <i_i_glide_posenum>  (1) 
263

>  <i_i_glide_rotatable_bonds>  (1) 
5

>  <i_lp_mmshare_version>  (1) 
72125

>  <i_m_source_file_index>  (1) 
29

>  <i_f3d_flags>  (1) 
0

>  <num_sample>  (1) 
100

>  <b_lp_Chiralities_Consistent>  (1) 
1

>  <r_epik_Charging_Adjusted_Penalty>  (1) 
0.16160378579191387

>  <r_epik_Ionization_Penalty>  (1) 
0.086651210493904285

>  <r_epik_Ionization_Penalty_Charging>  (1) 
0.086651186480528317

>  <r_epik_Ionization_Penalty_Neutral>  (1) 
2.4013375966173516e-08

>  <r_epik_State_Penalty>  (1) 
0.074952599311385565

>  <r_glide_ring_energy>  (1) 
0.00030236742994427327

>  <r_i_docking_score>  (1) 
-5.9691523585313382

>  <r_i_glide_ecoul>  (1) 
-5.5807988441547973

>  <r_i_glide_eff_state_penalty>  (1) 
0.074952599311385565

>  <r_i_glide_einternal>  (1) 
14.253762284308667

>  <r_i_glide_emodel>  (1) 
-44.601459188579803

>  <r_i_glide_emodel_strain>  (1) 
2.7942938904243917

>  <r_i_glide_energy>  (1) 
-38.118980519773061

>  <r_i_glide_erotb>  (1) 
1.0307106156986021

>  <r_i_glide_esite>  (1) 
-0.10000000000000001

>  <r_i_glide_evdw>  (1) 
-32.538181675618262

>  <r_i_glide_gscore>  (1) 
-6.0441049578427242

>  <r_i_glide_gscore_strain>  (1) 
0

>  <r_i_glide_hbond>  (1) 
-0.20000000000000001

>  <r_i_glide_ligand_efficiency>  (1) 
-0.31416591360691254

>  <r_i_glide_ligand_efficiency_ln>  (1) 
-1.5133083285250293

>  <r_i_glide_ligand_efficiency_sa>  (1) 
-0.83832084184092159

>  <r_i_glide_lipo>  (1) 
-1.9911444416159392

>  <r_i_glide_metal>  (1) 
-0

>  <r_i_glide_rewards>  (1) 
-2.3196422215212542

>  <r_lp_Energy>  (1) 
45.017665000000001

>  <s_epik_cmdline>  (1) 
J2VwaWtfcHl0aG9uJywgJy1waHQnLCAnMS4wJywgJy1waCcsICc3LjQnLCAnLXRuJywgJzgnLCAnLW1hJywgJzUwMCcsICctaW1hZScsICc8aW5maWxlLm1hZT4nLCAnLW9tYWUnLCAnPG91dGZpbGUubWFlPic=

>  <s_epik_input>  (1) 
W0NIMl0xW0NIMl1bQ0gyXVtDSDJdW0NIXT1DMWMoW2NIXVtuSF1jMj1PKW5jMltDSDJdW0NIMl1OKFtDSDNdKVtDSDJdW0NIM10=

>  <s_glide_docking_method>  (1) 
confgen

>  <s_i_glide_gridfile>  (1) 
gpcr_drd2_6luq_protein_autoprepared_prepared

>  <s_lp_Force_Field>  (1) 
S-OPLS

>  <s_lp_Variant>  (1) 
DiffSBDD_28_num_sample_100-2

>  <s_m_source_file>  (1) 
generated__ligand_DiffSBDD_2026-05-06_prepared.sdf

>  <GenAI_Model>  (1) 
DiffSBDD

>  <Protein>  (1) 
generic_title2

$$$$
DiffSBDD_44_num_sample_100
     RDKit          3D

  0  0  0  0  0  0  0  0  0  0999 V3000
M  V30 BEGIN CTAB
M  V30 COUNTS 56 58 0 0 1
M  V30 BEGIN ATOM
M  V30 1 C 8.276725 3.997725 -12.853184 0
M  V30 2 C 7.787634 5.460578 -12.665512 0 CFG=1
M  V30 3 C 12.172902 9.081985 -4.918977 0
M  V30 4 C 12.158268 7.128590 -2.889794 0
M  V30 5 C 11.434848 6.910266 -4.072651 0
M  V30 6 C 11.252936 7.769325 -10.973665 0
M  V30 7 C 6.876307 5.868220 -13.813085 0
M  V30 8 N 6.863134 5.659175 -11.516291 0 CFG=1 CHG=1
M  V30 9 C 10.860594 6.969303 -9.738120 0
M  V30 10 C 10.965682 8.169416 -7.508421 0
M  V30 11 O 11.870477 8.969306 -7.734452 0
M  V30 12 C 12.879207 8.312674 -2.717969 0
M  V30 13 N 12.159136 6.169311 -1.891673 0
M  V30 14 C 5.435202 6.097285 -13.444982 0
M  V30 15 N 10.676705 7.645921 -6.315585 0
M  V30 16 C 11.322599 6.935725 -12.288309 0
M  V30 17 O 8.600968 7.690177 -12.291702 0
M  V30 18 C 9.300365 6.549649 -7.830927 0
M  V30 19 C 5.450503 5.672170 -11.971823 0
M  V30 20 N 10.167811 6.064781 -12.509717 0
M  V30 21 C 7.105530 4.835945 -10.317888 0
M  V30 22 C 10.074728 7.655125 -8.618719 0 CFG=2
M  V30 23 C 9.581545 6.713144 -6.330341 0
M  V30 24 C 11.434820 7.887577 -5.100330 0
M  V30 25 C 8.895920 6.508424 -12.479022 0
M  V30 26 C 12.890276 9.281021 -3.729853 0
M  V30 27 O 7.284864 5.993430 -14.966641 0
M  V30 28 H 8.857821 3.893828 -13.770576 0
M  V30 29 H 8.911878 3.658025 -12.034219 0
M  V30 30 H 7.440855 3.300060 -12.926967 0
M  V30 31 H 12.185292 9.846454 -5.675638 0
M  V30 32 H 10.884685 5.992064 -4.190339 0
M  V30 33 H 10.530633 8.569298 -11.091551 0
M  V30 34 H 12.206937 8.262471 -10.780069 0
M  V30 35 H 11.774833 6.569354 -9.312833 0
M  V30 36 H 10.244221 6.127810 -10.048533 0
M  V30 37 H 13.434817 8.481602 -1.807732 0
M  V30 38 H 12.730260 6.271220 -1.065959 0
M  V30 39 H 11.695897 5.275767 -2.017980 0
M  V30 40 H 5.193698 7.153872 -13.564826 0
M  V30 41 H 4.758259 5.492026 -14.047501 0
M  V30 42 H 11.452345 7.551492 -13.174520 0
M  V30 43 H 12.205176 6.297080 -12.269942 0
M  V30 44 H 8.234833 6.569289 -8.037048 0
M  V30 45 H 9.634893 5.546309 -8.101233 0
M  V30 46 H 4.868243 6.344100 -11.340433 0
M  V30 47 H 5.030692 4.669205 -11.882810 0
M  V30 48 H 10.346025 5.082772 -12.677147 0
M  V30 49 H 6.677108 3.837693 -10.407052 0
M  V30 50 H 8.166647 4.753676 -10.084004 0
M  V30 51 H 6.634842 5.347118 -9.491323 0
M  V30 52 H 9.403800 8.436414 -8.977222 0
M  V30 53 H 9.777666 5.769302 -5.858629 0
M  V30 54 H 8.707981 7.180569 -5.891675 0
M  V30 55 H 13.453770 10.169545 -3.592730 0
M  V30 56 H 7.049233 6.614039 -11.217393 0
M  V30 END ATOM
M  V30 BEGIN BOND
M  V30 1 1 2 1 CFG=3
M  V30 2 2 5 4
M  V30 3 1 7 2
M  V30 4 1 8 2
M  V30 5 1 9 6
M  V30 6 2 11 10
M  V30 7 1 12 4
M  V30 8 1 13 4
M  V30 9 1 14 7
M  V30 10 1 15 10
M  V30 11 1 16 6
M  V30 12 1 19 8
M  V30 13 1 19 14
M  V30 14 1 20 16
M  V30 15 1 21 8
M  V30 16 1 22 9
M  V30 17 1 22 10
M  V30 18 1 22 18
M  V30 19 1 23 15
M  V30 20 1 23 18
M  V30 21 2 24 3
M  V30 22 1 24 5
M  V30 23 1 24 15
M  V30 24 1 25 2
M  V30 25 2 25 17
M  V30 26 1 25 20
M  V30 27 1 26 3
M  V30 28 2 26 12
M  V30 29 2 27 7
M  V30 30 1 28 1
M  V30 31 1 29 1
M  V30 32 1 30 1
M  V30 33 1 31 3
M  V30 34 1 32 5
M  V30 35 1 33 6
M  V30 36 1 34 6
M  V30 37 1 35 9
M  V30 38 1 36 9
M  V30 39 1 37 12
M  V30 40 1 38 13
M  V30 41 1 39 13
M  V30 42 1 40 14
M  V30 43 1 41 14
M  V30 44 1 42 16
M  V30 45 1 43 16
M  V30 46 1 44 18
M  V30 47 1 45 18
M  V30 48 1 46 19
M  V30 49 1 47 19
M  V30 50 1 48 20
M  V30 51 1 49 21
M  V30 52 1 50 21
M  V30 53 1 51 21
M  V30 54 1 22 52 CFG=3
M  V30 55 1 53 23
M  V30 56 1 54 23
M  V30 57 1 55 26
M  V30 58 1 8 56 CFG=1
M  V30 END BOND
M  V30 END CTAB
M  END
>  <i_epik_Tot_Q>  (1) 
1

>  <i_epik_Tot_abs_Q>  (1) 
1

>  <i_i_glide_confnum>  (1) 
141

>  <i_i_glide_lignum>  (1) 
81

>  <i_i_glide_posenum>  (1) 
212

>  <i_i_glide_rotatable_bonds>  (1) 
7

>  <i_lp_mmshare_version>  (1) 
72125

>  <i_m_source_file_index>  (1) 
45

>  <i_f3d_flags>  (1) 
0

>  <num_sample>  (1) 
100

>  <b_lp_Chiralities_Consistent>  (1) 
1

>  <r_epik_Charging_Adjusted_Penalty>  (1) 
0.87787264938008924

>  <r_epik_Ionization_Penalty>  (1) 
0.44040452980928141

>  <r_epik_Ionization_Penalty_Charging>  (1) 
0.43893632469004462

>  <r_epik_Ionization_Penalty_Neutral>  (1) 
0.0014682051192367804

>  <r_epik_State_Penalty>  (1) 
0.43893632469004457

>  <r_glide_ring_energy>  (1) 
0

>  <r_i_docking_score>  (1) 
-5.9650200118225145

>  <r_i_glide_ecoul>  (1) 
-7.7303063249581188

>  <r_i_glide_eff_state_penalty>  (1) 
0.43893632469004457

>  <r_i_glide_einternal>  (1) 
14.238962168912177

>  <r_i_glide_emodel>  (1) 
-42.462483527636088

>  <r_i_glide_emodel_strain>  (1) 
4.3281652199537035

>  <r_i_glide_energy>  (1) 
-40.476132017668611

>  <r_i_glide_erotb>  (1) 
0.96983297192060391

>  <r_i_glide_esite>  (1) 
-0.074065606314992358

>  <r_i_glide_evdw>  (1) 
-32.74582569271049

>  <r_i_glide_gscore>  (1) 
-6.4039563365125591

>  <r_i_glide_gscore_strain>  (1) 
0.082041304988425878

>  <r_i_glide_hbond>  (1) 
-0.16228069533556896

>  <r_i_glide_ligand_efficiency>  (1) 
-0.22092666710453757

>  <r_i_glide_ligand_efficiency_ln>  (1) 
-1.3885583177116165

>  <r_i_glide_ligand_efficiency_sa>  (1) 
-0.66278000131361281

>  <r_i_glide_lipo>  (1) 
-1.9758526525131703

>  <r_i_glide_metal>  (1) 
-0

>  <r_i_glide_rewards>  (1) 
-2.4467944258786134

>  <r_lp_Energy>  (1) 
28.974819999999998

>  <r_lp_tautomer_probability>  (1) 
0.99995000000000001

>  <s_epik_cmdline>  (1) 
J2VwaWtfcHl0aG9uJywgJy1waHQnLCAnMS4wJywgJy1waCcsICc3LjQnLCAnLXRuJywgJzgnLCAnLW1hJywgJzUwMCcsICctaW1hZScsICc8aW5maWxlLm1hZT4nLCAnLW9tYWUnLCAnPG91dGZpbGUubWFlPic=

>  <s_epik_input>  (1) 
W0NIM11OMVtDSDJdW0NIMl1DKD1PKVtDQEBdMShbQ0gzXSlDKD1PKVtOSF1bQ0gyXVtDSDJdW0NIMl1bQ0BASF0yW0NIMl1bQ0gyXU4oQzI9TyljKFtjSF1bY0hdW2NIXTMpW2NIXWMzW05IMl0=

>  <s_glide_docking_method>  (1) 
confgen

>  <s_i_glide_gridfile>  (1) 
gpcr_drd2_6luq_protein_autoprepared_prepared

>  <s_lp_Force_Field>  (1) 
S-OPLS

>  <s_lp_Variant>  (1) 
DiffSBDD_44_num_sample_100-6

>  <s_m_source_file>  (1) 
generated__ligand_DiffSBDD_2026-05-06_prepared.sdf

>  <GenAI_Model>  (1) 
DiffSBDD

>  <Protein>  (1) 
generic_title2

$$$$
DiffSBDD_6_num_sample_100
     RDKit          3D

  0  0  0  0  0  0  0  0  0  0999 V3000
M  V30 BEGIN CTAB
M  V30 COUNTS 65 68 0 0 1
M  V30 BEGIN ATOM
M  V30 1 N 7.427932 5.320904 -13.779528 0
M  V30 2 N 10.716915 7.231392 -7.674291 0
M  V30 3 C 11.402036 8.453307 -7.856226 0
M  V30 4 C 12.029364 7.984097 -10.304519 0
M  V30 5 C 8.782690 4.940332 -18.519443 0
M  V30 6 N 8.634883 6.329919 -10.174150 0 CFG=1 CHG=1
M  V30 7 C 7.251134 5.793035 -15.104027 0
M  V30 8 F 10.235466 9.615837 -6.151570 0
M  V30 9 C 6.526372 4.191147 -10.569572 0
M  V30 10 C 7.308712 3.878031 -13.522661 0
M  V30 11 C 9.708653 7.297962 -9.921720 0 CFG=1
M  V30 12 F 9.924588 4.745147 -17.856339 0
M  V30 13 C 8.481251 5.557076 -11.455196 0 CFG=2
M  V30 14 C 10.249595 6.435276 -8.803438 0 CFG=2
M  V30 15 C 8.881749 5.765714 -8.811059 0
M  V30 16 F 8.411965 3.778436 -19.058149 0
M  V30 17 C 5.447221 6.686813 -17.517308 0
M  V30 18 C 5.331724 7.042545 -16.239238 0
M  V30 19 C 7.689024 5.459348 -17.592935 0
M  V30 20 C 7.505994 6.196348 -12.543469 0 CFG=1
M  V30 21 F 9.834878 7.292825 -5.543811 0
M  V30 22 C 6.419272 7.028924 -15.238662 0
M  V30 23 C 6.643048 6.139671 -18.163003 0
M  V30 24 C 10.685343 7.698404 -10.983686 0
M  V30 25 C 7.999475 7.650604 -12.748417 0
M  V30 26 F 12.231695 8.906484 -5.654068 0
M  V30 27 C 11.973093 8.825800 -9.034782 0
M  V30 28 C 7.981641 4.166045 -11.145833 0 CFG=2
M  V30 29 C 7.804184 5.138102 -16.151138 0
M  V30 30 C 11.448012 9.363587 -6.628734 0
M  V30 31 C 8.188657 3.338699 -12.416455 0
M  V30 32 C 10.589932 6.594091 -6.368796 0
M  V30 33 F 9.028414 5.798774 -19.510269 0
M  V30 34 H 12.706100 8.470239 -11.006923 0
M  V30 35 H 12.531494 7.054695 -10.041972 0
M  V30 36 H 5.756642 4.219224 -11.338570 0
M  V30 37 H 6.275580 3.369553 -9.907777 0
M  V30 38 H 6.359252 5.084232 -9.968781 0
M  V30 39 H 6.262799 3.674649 -13.300295 0
M  V30 40 H 7.499199 3.276728 -14.405840 0
M  V30 41 H 9.218461 8.180493 -9.501375 0
M  V30 42 H 9.469568 5.435270 -11.890381 0
M  V30 43 H 11.034300 5.768455 -9.091611 0
M  V30 44 H 8.227922 6.202420 -8.062486 0
M  V30 45 H 8.941972 4.694024 -8.656011 0
M  V30 46 H 4.576239 6.829095 -18.142889 0
M  V30 47 H 4.387309 7.441458 -15.899222 0
M  V30 48 H 6.494082 6.269916 -12.143866 0
M  V30 49 H 5.878611 7.212319 -14.311435 0
M  V30 50 H 7.035812 7.894146 -15.463869 0
M  V30 51 H 6.680882 6.242154 -19.237237 0
M  V30 52 H 10.278511 8.569333 -11.489860 0
M  V30 53 H 10.865804 6.939090 -11.738127 0
M  V30 54 H 7.953520 8.213198 -11.817976 0
M  V30 55 H 9.026446 7.649794 -13.091506 0
M  V30 56 H 7.435811 8.275969 -13.418218 0
M  V30 57 H 12.463864 9.769269 -9.094156 0
M  V30 58 H 8.682765 3.769390 -10.430707 0
M  V30 59 H 8.423068 4.286437 -15.910948 0
M  V30 60 H 11.835020 10.343066 -6.899476 0
M  V30 61 H 7.967385 2.282974 -12.291015 0
M  V30 62 H 9.235329 3.376100 -12.723948 0
M  V30 63 H 10.097472 5.635729 -6.455917 0
M  V30 64 H 11.562759 6.447847 -5.898985 0
M  V30 65 H 7.766878 6.868558 -10.027820 0
M  V30 END ATOM
M  V30 BEGIN BOND
M  V30 1 1 3 2
M  V30 2 1 7 1
M  V30 3 1 10 1
M  V30 4 1 11 6
M  V30 5 1 12 5
M  V30 6 1 13 6
M  V30 7 1 14 2
M  V30 8 1 14 11
M  V30 9 1 15 6
M  V30 10 1 15 14
M  V30 11 1 16 5
M  V30 12 2 18 17
M  V30 13 1 19 5
M  V30 14 1 20 1
M  V30 15 1 20 13
M  V30 16 1 22 7
M  V30 17 1 22 18
M  V30 18 1 23 17
M  V30 19 2 23 19
M  V30 20 1 24 4
M  V30 21 1 24 11
M  V30 22 1 25 20
M  V30 23 2 27 3
M  V30 24 1 27 4
M  V30 25 1 28 9
M  V30 26 1 28 13
M  V30 27 2 29 7
M  V30 28 1 29 19
M  V30 29 1 30 3
M  V30 30 1 30 8
M  V30 31 1 30 26
M  V30 32 1 31 10
M  V30 33 1 31 28
M  V30 34 1 32 2
M  V30 35 1 32 21
M  V30 36 1 33 5
M  V30 37 1 34 4
M  V30 38 1 35 4
M  V30 39 1 36 9
M  V30 40 1 37 9
M  V30 41 1 38 9
M  V30 42 1 39 10
M  V30 43 1 40 10
M  V30 44 1 11 41 CFG=1
M  V30 45 1 13 42 CFG=3
M  V30 46 1 14 43 CFG=3
M  V30 47 1 44 15
M  V30 48 1 45 15
M  V30 49 1 46 17
M  V30 50 1 47 18
M  V30 51 1 20 48 CFG=1
M  V30 52 1 49 22
M  V30 53 1 50 22
M  V30 54 1 51 23
M  V30 55 1 52 24
M  V30 56 1 53 24
M  V30 57 1 54 25
M  V30 58 1 55 25
M  V30 59 1 56 25
M  V30 60 1 57 27
M  V30 61 1 28 58 CFG=1
M  V30 62 1 59 29
M  V30 63 1 60 30
M  V30 64 1 61 31
M  V30 65 1 62 31
M  V30 66 1 63 32
M  V30 67 1 64 32
M  V30 68 1 6 65 CFG=1
M  V30 END BOND
M  V30 END CTAB
M  END
>  <i_epik_Tot_Q>  (1) 
1

>  <i_epik_Tot_abs_Q>  (1) 
1

>  <i_i_glide_confnum>  (1) 
29

>  <i_i_glide_lignum>  (1) 
11

>  <i_i_glide_posenum>  (1) 
20

>  <i_i_glide_rotatable_bonds>  (1) 
5

>  <i_lp_mmshare_version>  (1) 
72125

>  <i_m_source_file_index>  (1) 
7

>  <i_f3d_flags>  (1) 
0

>  <num_sample>  (1) 
100

>  <b_lp_Chiralities_Consistent>  (1) 
1

>  <r_epik_Charging_Adjusted_Penalty>  (1) 
2.2946868864184928

>  <r_epik_Ionization_Penalty>  (1) 
1.147343534253078

>  <r_epik_Ionization_Penalty_Charging>  (1) 
1.1473434712357071

>  <r_epik_Ionization_Penalty_Neutral>  (1) 
6.301737089438289e-08

>  <r_epik_State_Penalty>  (1) 
1.1473434151827855

>  <r_glide_ring_energy>  (1) 
0.067460085264342703

>  <r_i_docking_score>  (1) 
-5.9618840755034146

>  <r_i_glide_ecoul>  (1) 
-8.8916596827891645

>  <r_i_glide_eff_state_penalty>  (1) 
1.1473434151827855

>  <r_i_glide_einternal>  (1) 
31.572433301640771

>  <r_i_glide_emodel>  (1) 
-24.909934633260413

>  <r_i_glide_emodel_strain>  (1) 
4.0438599665123434

>  <r_i_glide_energy>  (1) 
-33.54484919849186

>  <r_i_glide_erotb>  (1) 
0.17835229215497114

>  <r_i_glide_esite>  (1) 
-0.083194324751362903

>  <r_i_glide_evdw>  (1) 
-24.653189515702696

>  <r_i_glide_gscore>  (1) 
-7.1092274906861999

>  <r_i_glide_gscore_strain>  (1) 
0.010964991628085841

>  <r_i_glide_hbond>  (1) 
-0.14840890070143803

>  <r_i_glide_ligand_efficiency>  (1) 
-0.18066315380313377

>  <r_i_glide_ligand_efficiency_ln>  (1) 
-1.3258921494082889

>  <r_i_glide_ligand_efficiency_sa>  (1) 
-0.57948326798886773

>  <r_i_glide_lipo>  (1) 
-2.8910206259088134

>  <r_i_glide_metal>  (1) 
-0

>  <r_i_glide_rewards>  (1) 
-1.6095124949041322

>  <r_lp_Energy>  (1) 
67.908214999999998

>  <s_epik_Chemistry_Notes>  (1) 
This compound has an imine and may undergo hydrolysis.

>  <s_epik_cmdline>  (1) 
J2VwaWtfcHl0aG9uJywgJy1waHQnLCAnMS4wJywgJy1waCcsICc3LjQnLCAnLXRuJywgJzgnLCAnLW1hJywgJzUwMCcsICctaW1hZScsICc8aW5maWxlLm1hZT4nLCAnLW9tYWUnLCAnPG91dGZpbGUubWFlPic=

>  <s_epik_input>  (1) 
W0NIMl0xW0NIXT1bQ0hdW0NIXT1DKEMoRikoRilGKVtDSF09QzFOMltDSDJdW0NIMl1bQ0BIXShbQ0gzXSlbQ0BASF0oW0NASF0yW0NIM10pTjNbQ0gyXVtDQEBIXShbQ0BIXTM0KU4oW0NIMl1GKUMoW0NIXShGKUYpPVtDSF1bQ0gyXVtDSDJdNA==

>  <s_glide_docking_method>  (1) 
confgen

>  <s_i_glide_gridfile>  (1) 
gpcr_drd2_6luq_protein_autoprepared_prepared

>  <s_lp_Force_Field>  (1) 
S-OPLS

>  <s_lp_Variant>  (1) 
DiffSBDD_6_num_sample_100-3

>  <s_m_source_file>  (1) 
generated__ligand_DiffSBDD_2026-05-06_prepared.sdf

>  <GenAI_Model>  (1) 
DiffSBDD

>  <Protein>  (1) 
generic_title2

$$$$
DiffSBDD_70_num_sample_100
     RDKit          3D

  0  0  0  0  0  0  0  0  0  0999 V3000
M  V30 BEGIN CTAB
M  V30 COUNTS 76 78 0 0 1
M  V30 BEGIN ATOM
M  V30 1 C 7.450268 5.988559 -18.090223 0 CFG=1
M  V30 2 C 5.647869 5.807251 -19.673878 0
M  V30 3 C 7.512582 4.691081 -15.943660 0 CFG=1
M  V30 4 C 6.576368 5.243895 -11.293585 0
M  V30 5 C 8.103237 1.916923 -13.496094 0
M  V30 6 Cl 7.111353 0.450547 -13.331201 0
M  V30 7 C 7.742653 4.985425 -10.318028 0
M  V30 8 C 6.736202 4.843156 -20.144915 0
M  V30 9 C 10.756689 7.206042 -9.166467 0
M  V30 10 C 7.964317 5.163523 -19.285034 0
M  V30 11 C 9.701371 6.047378 -9.142472 0 CFG=1
M  V30 12 C 7.499859 3.295705 -16.602910 0
M  V30 13 C 8.427550 4.761492 -14.687340 0
M  V30 14 C 9.865472 8.718222 -6.397628 0
M  V30 15 C 7.101061 5.552117 -12.717385 0 CFG=1
M  V30 16 C 11.575390 7.416005 -7.850033 0 CFG=2
M  V30 17 O 3.812382 7.009541 -17.629939 0
M  V30 18 O 9.034842 8.969306 -7.491624 0
M  V30 19 C 10.696223 7.462639 -6.594156 0 CFG=2
M  V30 20 C 7.921137 6.846710 -12.524033 0
M  V30 21 C 5.907405 5.982778 -18.171364 0 CFG=2
M  V30 22 C 7.195740 3.137389 -13.297612 0
M  V30 23 C 9.028165 5.918590 -7.755403 0
M  V30 24 O 8.079919 5.641988 -16.848397 0
M  V30 25 C 9.913374 6.169173 -6.538645 0
M  V30 26 C 5.201963 7.220947 -17.571816 0
M  V30 27 C 9.107575 6.622127 -11.555608 0
M  V30 28 O 13.434600 8.341754 -8.904474 0
M  V30 29 O 5.625054 7.453529 -16.248223 0
M  V30 30 F 11.434949 7.414742 -5.493397 0
M  V30 31 N 8.640573 6.169299 -10.211519 0 CFG=1 CHG=1
M  V30 32 N 7.865091 4.445406 -13.350911 0
M  V30 33 O 12.399546 8.569198 -7.905857 0
M  V30 34 H 7.773458 7.007882 -18.292185 0
M  V30 35 H 5.760467 6.762845 -20.187325 0
M  V30 36 H 4.644239 5.434563 -19.886671 0
M  V30 37 H 6.504657 4.997165 -15.669444 0
M  V30 38 H 5.859683 4.425184 -11.271724 0
M  V30 39 H 5.995293 6.092717 -10.925809 0
M  V30 40 H 8.579684 1.876562 -14.471722 0
M  V30 41 H 8.887104 1.879618 -12.737832 0
M  V30 42 H 8.328412 4.124987 -10.638901 0
M  V30 43 H 7.305811 4.730128 -9.355207 0
M  V30 44 H 6.939248 4.930710 -21.213169 0
M  V30 45 H 6.419651 3.816153 -19.957237 0
M  V30 46 H 10.273206 8.147006 -9.418347 0
M  V30 47 H 11.448752 7.027990 -9.988124 0
M  V30 48 H 8.688490 5.746112 -19.854881 0
M  V30 49 H 8.475503 4.251361 -18.981605 0
M  V30 50 H 10.234836 5.114764 -9.313863 0
M  V30 51 H 6.942531 3.284483 -17.536484 0
M  V30 52 H 7.023171 2.548162 -15.974715 0
M  V30 53 H 8.512765 2.955430 -16.820992 0
M  V30 54 H 8.857697 5.757692 -14.661146 0
M  V30 55 H 9.317862 4.169305 -14.862661 0
M  V30 56 H 9.255220 8.569103 -5.517545 0
M  V30 57 H 10.504399 9.583974 -6.220024 0
M  V30 58 H 6.240613 5.784373 -13.346522 0
M  V30 59 H 12.221751 6.570155 -7.649696 0
M  V30 60 H 3.382684 7.839845 -17.483307 0
M  V30 61 H 8.344503 8.318938 -7.525611 0
M  V30 62 H 8.241103 7.277388 -13.469194 0
M  V30 63 H 7.273822 7.620188 -12.105602 0
M  V30 64 H 5.525209 5.088104 -17.693716 0
M  V30 65 H 6.769829 2.967892 -12.314404 0
M  V30 66 H 6.344980 3.117270 -13.978420 0
M  V30 67 H 8.234837 6.636657 -7.697010 0
M  V30 68 H 8.568055 4.939509 -7.636215 0
M  V30 69 H 9.320106 6.142468 -5.625201 0
M  V30 70 H 10.645533 5.369899 -6.481446 0
M  V30 71 H 5.434795 8.110173 -18.158276 0
M  V30 72 H 9.650367 7.564037 -11.487085 0
M  V30 73 H 9.800450 5.885655 -11.965498 0
M  V30 74 H 13.284696 9.068655 -9.494975 0
M  V30 75 H 5.624631 6.627655 -15.790665 0
M  V30 76 H 8.011452 6.917471 -9.891240 0
M  V30 END ATOM
M  V30 BEGIN BOND
M  V30 1 1 6 5
M  V30 2 1 7 4
M  V30 3 1 8 2
M  V30 4 1 10 1
M  V30 5 1 10 8
M  V30 6 1 11 9
M  V30 7 1 12 3
M  V30 8 1 13 3
M  V30 9 1 15 4
M  V30 10 1 16 9
M  V30 11 1 18 14
M  V30 12 1 19 14
M  V30 13 1 19 16
M  V30 14 1 20 15
M  V30 15 1 21 1
M  V30 16 1 21 2
M  V30 17 1 22 5
M  V30 18 1 23 11
M  V30 19 1 24 1
M  V30 20 1 24 3
M  V30 21 1 25 19
M  V30 22 1 25 23
M  V30 23 1 26 17
M  V30 24 1 26 21
M  V30 25 1 27 20
M  V30 26 1 29 26
M  V30 27 1 19 30 CFG=1
M  V30 28 1 31 7
M  V30 29 1 31 11
M  V30 30 1 31 27
M  V30 31 1 32 13
M  V30 32 1 32 15
M  V30 33 1 32 22
M  V30 34 1 33 16
M  V30 35 1 33 28
M  V30 36 1 1 34 CFG=3
M  V30 37 1 35 2
M  V30 38 1 36 2
M  V30 39 1 3 37 CFG=1
M  V30 40 1 38 4
M  V30 41 1 39 4
M  V30 42 1 40 5
M  V30 43 1 41 5
M  V30 44 1 42 7
M  V30 45 1 43 7
M  V30 46 1 44 8
M  V30 47 1 45 8
M  V30 48 1 46 9
M  V30 49 1 47 9
M  V30 50 1 48 10
M  V30 51 1 49 10
M  V30 52 1 11 50 CFG=3
M  V30 53 1 51 12
M  V30 54 1 52 12
M  V30 55 1 53 12
M  V30 56 1 54 13
M  V30 57 1 55 13
M  V30 58 1 56 14
M  V30 59 1 57 14
M  V30 60 1 15 58 CFG=3
M  V30 61 1 16 59 CFG=1
M  V30 62 1 60 17
M  V30 63 1 61 18
M  V30 64 1 62 20
M  V30 65 1 63 20
M  V30 66 1 21 64 CFG=1
M  V30 67 1 65 22
M  V30 68 1 66 22
M  V30 69 1 67 23
M  V30 70 1 68 23
M  V30 71 1 69 25
M  V30 72 1 70 25
M  V30 73 1 71 26
M  V30 74 1 72 27
M  V30 75 1 73 27
M  V30 76 1 74 28
M  V30 77 1 75 29
M  V30 78 1 31 76 CFG=1
M  V30 END BOND
M  V30 END CTAB
M  END
>  <i_epik_Tot_Q>  (1) 
1

>  <i_epik_Tot_abs_Q>  (1) 
1

>  <i_i_glide_confnum>  (1) 
2767

>  <i_i_glide_lignum>  (1) 
141

>  <i_i_glide_posenum>  (1) 
170

>  <i_i_glide_rotatable_bonds>  (1) 
15

>  <i_lp_mmshare_version>  (1) 
72125

>  <i_m_source_file_index>  (1) 
71

>  <i_f3d_flags>  (1) 
0

>  <num_sample>  (1) 
100

>  <b_lp_Chiralities_Consistent>  (1) 
1

>  <r_epik_Charging_Adjusted_Penalty>  (1) 
0.025762522161214964

>  <r_epik_Ionization_Penalty>  (1) 
0.015537266588199847

>  <r_epik_Ionization_Penalty_Charging>  (1) 
0.0050933563181465155

>  <r_epik_Ionization_Penalty_Neutral>  (1) 
0.010443910270053331

>  <r_epik_State_Penalty>  (1) 
0.020669165843068448

>  <r_glide_ring_energy>  (1) 
0

>  <r_i_docking_score>  (1) 
-5.9586868499702517

>  <r_i_glide_ecoul>  (1) 
-11.158923912653748

>  <r_i_glide_eff_state_penalty>  (1) 
0.020669165843068448

>  <r_i_glide_einternal>  (1) 
9.400766994042872

>  <r_i_glide_emodel>  (1) 
-53.530949265696108

>  <r_i_glide_emodel_strain>  (1) 
1.4131812818382485

>  <r_i_glide_energy>  (1) 
-41.131938051841274

>  <r_i_glide_erotb>  (1) 
0.82250602570520104

>  <r_i_glide_esite>  (1) 
-0.097580595346470317

>  <r_i_glide_evdw>  (1) 
-29.97301413918753

>  <r_i_glide_gscore>  (1) 
-5.9793560158133205

>  <r_i_glide_gscore_strain>  (1) 
0

>  <r_i_glide_hbond>  (1) 
-0.30755795622553561

>  <r_i_glide_ligand_efficiency>  (1) 
-0.18056626818091673

>  <r_i_glide_ligand_efficiency_ln>  (1) 
-1.3251811030040612

>  <r_i_glide_ligand_efficiency_sa>  (1) 
-0.57917250402952347

>  <r_i_glide_lipo>  (1) 
-1.7970977331816624

>  <r_i_glide_metal>  (1) 
-0

>  <r_i_glide_rewards>  (1) 
-1.4271364629074137

>  <r_lp_Energy>  (1) 
61.015052999999995

>  <s_epik_Chemistry_Notes>  (1) 
This compound contains an acetal/aminal-like group ( X-CH(R)-Y where X, Y are N, S, or O) that may be acid/base labile, releasing an aldehyde.

>  <s_epik_cmdline>  (1) 
J2VwaWtfcHl0aG9uJywgJy1waHQnLCAnMS4wJywgJy1waCcsICc3LjQnLCAnLXRuJywgJzgnLCAnLW1hJywgJzUwMCcsICctaW1hZScsICc8aW5maWxlLm1hZT4nLCAnLW9tYWUnLCAnPG91dGZpbGUubWFlPic=

>  <s_epik_input>  (1) 
W09IXVtDSF0oW09IXSlbQ0BIXTFbQ0gyXVtDSDJdW0NIMl1bQ0BASF0xT1tDQEBIXShbQ0gzXSlbQ0gyXU4oW0NIMl1bQ0gyXUNsKVtDSF0yW0NIMl1bQ0gyXU4oW0NIMl1bQ0gyXTIpW0NASF0oW0NIMl1bQ0gyXTMpW0NIMl1bQ0BASF0oT1tPSF0pW0NAQF0zKEYpW0NIMl1bT0hd

>  <s_glide_docking_method>  (1) 
confgen

>  <s_i_glide_gridfile>  (1) 
gpcr_drd2_6luq_protein_autoprepared_prepared

>  <s_lp_Force_Field>  (1) 
S-OPLS

>  <s_lp_Variant>  (1) 
DiffSBDD_70_num_sample_100-1

>  <s_m_source_file>  (1) 
generated__ligand_DiffSBDD_2026-05-06_prepared.sdf

>  <GenAI_Model>  (1) 
DiffSBDD

>  <Protein>  (1) 
generic_title2

$$$$
DiffSBDD_61_num_sample_100
     RDKit          3D

  0  0  0  0  0  0  0  0  0  0999 V3000
M  V30 BEGIN CTAB
M  V30 COUNTS 51 53 0 0 1
M  V30 BEGIN ATOM
M  V30 1 N 11.434832 7.908509 -5.283690 0
M  V30 2 C 6.784766 4.785417 -14.374049 0
M  V30 3 C 7.538697 5.361469 -13.153662 0 CFG=1
M  V30 4 O 12.316852 7.138214 -1.891666 0
M  V30 5 C 12.634875 8.482486 -1.968693 0
M  V30 6 O 7.191176 6.727207 -12.943644 0
M  V30 7 C 9.916670 7.741529 -10.450388 0
M  V30 8 O 5.626238 3.769305 -10.291665 0
M  V30 9 C 11.112736 7.588808 -9.514479 0
M  V30 10 C 9.720891 5.571809 -11.968396 0 CFG=1
M  V30 11 C 10.458316 6.909200 -5.704960 0
M  V30 12 C 7.240740 4.557835 -11.875666 0 CFG=2
M  V30 13 C 5.840984 4.758924 -11.273126 0
M  V30 14 C 10.638338 6.628956 -7.203742 0
M  V30 15 C 9.068755 5.221349 -13.315328 0
M  V30 16 C 10.760746 7.920961 -8.052502 0
M  V30 17 O 7.175625 3.682118 -14.817047 0 CHG=-1
M  V30 18 C 11.507072 9.183432 -5.982745 0
M  V30 19 C 10.073091 7.084668 -11.840013 0
M  V30 20 C 11.805857 8.875024 -7.453932 0
M  V30 21 C 11.834789 6.798222 -3.121987 0
M  V30 22 C 11.851189 7.883834 -3.936671 0
M  V30 23 C 12.373094 8.974309 -3.215511 0
M  V30 24 S 8.568225 4.955995 -10.700670 0
M  V30 25 O 5.834845 5.460330 -14.831226 0
M  V30 26 H 13.034749 8.914340 -1.064399 0
M  V30 27 H 7.520419 6.984847 -12.094313 0
M  V30 28 H 9.716241 8.800952 -10.577135 0
M  V30 29 H 9.034847 7.385343 -9.937738 0
M  V30 30 H 5.494803 4.188806 -9.438521 0
M  V30 31 H 11.473327 6.569330 -9.543790 0
M  V30 32 H 11.930461 8.209747 -9.883551 0
M  V30 33 H 10.634827 4.991352 -11.891676 0
M  V30 34 H 9.457209 7.298667 -5.521314 0
M  V30 35 H 10.542051 5.972170 -5.157551 0
M  V30 36 H 7.357710 3.499524 -12.117756 0
M  V30 37 H 5.070286 4.659815 -12.038283 0
M  V30 38 H 5.736816 5.751102 -10.830367 0
M  V30 39 H 9.812199 6.016154 -7.568413 0
M  V30 40 H 11.538056 6.026426 -7.320357 0
M  V30 41 H 9.474500 5.769303 -14.159186 0
M  V30 42 H 9.312208 4.178536 -13.526446 0
M  V30 43 H 9.801403 8.441514 -8.016563 0
M  V30 44 H 10.564126 9.719696 -5.877322 0
M  V30 45 H 12.301373 9.830671 -5.616208 0
M  V30 46 H 11.085021 7.245354 -12.212043 0
M  V30 47 H 9.453771 7.660376 -12.524468 0
M  V30 48 H 12.798656 8.430577 -7.536558 0
M  V30 49 H 11.834824 9.789736 -8.037077 0
M  V30 50 H 11.533619 5.769270 -3.236522 0
M  V30 51 H 12.533989 9.985412 -3.548006 0
M  V30 END ATOM
M  V30 BEGIN BOND
M  V30 1 1 3 2
M  V30 2 1 5 4
M  V30 3 1 3 6 CFG=1
M  V30 4 1 9 7
M  V30 5 1 11 1
M  V30 6 1 12 3
M  V30 7 1 13 8
M  V30 8 1 13 12
M  V30 9 1 14 11
M  V30 10 1 15 3
M  V30 11 1 15 10
M  V30 12 1 16 9
M  V30 13 1 16 14
M  V30 14 1 17 2
M  V30 15 1 18 1
M  V30 16 1 19 7
M  V30 17 1 19 10
M  V30 18 1 20 16
M  V30 19 1 20 18
M  V30 20 1 21 4
M  V30 21 1 22 1
M  V30 22 2 22 21
M  V30 23 2 23 5
M  V30 24 1 23 22
M  V30 25 1 24 10
M  V30 26 1 24 12
M  V30 27 2 25 2
M  V30 28 1 26 5
M  V30 29 1 27 6
M  V30 30 1 28 7
M  V30 31 1 29 7
M  V30 32 1 30 8
M  V30 33 1 31 9
M  V30 34 1 32 9
M  V30 35 1 10 33 CFG=1
M  V30 36 1 34 11
M  V30 37 1 35 11
M  V30 38 1 12 36 CFG=3
M  V30 39 1 37 13
M  V30 40 1 38 13
M  V30 41 1 39 14
M  V30 42 1 40 14
M  V30 43 1 41 15
M  V30 44 1 42 15
M  V30 45 1 43 16
M  V30 46 1 44 18
M  V30 47 1 45 18
M  V30 48 1 46 19
M  V30 49 1 47 19
M  V30 50 1 48 20
M  V30 51 1 49 20
M  V30 52 1 50 21
M  V30 53 1 51 23
M  V30 END BOND
M  V30 END CTAB
M  END
>  <i_epik_Tot_Q>  (1) 
-1

>  <i_epik_Tot_abs_Q>  (1) 
1

>  <i_i_glide_confnum>  (1) 
474

>  <i_i_glide_lignum>  (1) 
123

>  <i_i_glide_posenum>  (1) 
190

>  <i_i_glide_rotatable_bonds>  (1) 
9

>  <i_lp_mmshare_version>  (1) 
72125

>  <i_m_source_file_index>  (1) 
62

>  <i_f3d_flags>  (1) 
0

>  <num_sample>  (1) 
100

>  <b_lp_Chiralities_Consistent>  (1) 
1

>  <r_epik_Charging_Adjusted_Penalty>  (1) 
0.8774089377882176

>  <r_epik_Ionization_Penalty>  (1) 
0.8774093123040011

>  <r_epik_Ionization_Penalty_Charging>  (1) 
6.4905039586267643e-05

>  <r_epik_Ionization_Penalty_Neutral>  (1) 
0.87734440726441487

>  <r_epik_State_Penalty>  (1) 
0.87734403274863138

>  <r_glide_ring_energy>  (1) 
0

>  <r_i_docking_score>  (1) 
-5.9549401179114954

>  <r_i_glide_ecoul>  (1) 
-7.2213608639152467

>  <r_i_glide_eff_state_penalty>  (1) 
0.87734403274863138

>  <r_i_glide_einternal>  (1) 
10.391595633062407

>  <r_i_glide_emodel>  (1) 
-42.818012300717925

>  <r_i_glide_emodel_strain>  (1) 
4.5515654413876092

>  <r_i_glide_energy>  (1) 
-39.431833137778852

>  <r_i_glide_erotb>  (1) 
0.85157240902219222

>  <r_i_glide_esite>  (1) 
0

>  <r_i_glide_evdw>  (1) 
-32.210472273863608

>  <r_i_glide_gscore>  (1) 
-6.8322841506601266

>  <r_i_glide_gscore_strain>  (1) 
0.1378913603469023

>  <r_i_glide_hbond>  (1) 
-0.32000000000000001

>  <r_i_glide_ligand_efficiency>  (1) 
-0.23819760471645982

>  <r_i_glide_ligand_efficiency_ln>  (1) 
-1.411499263099911

>  <r_i_glide_ligand_efficiency_sa>  (1) 
-0.69649402139074523

>  <r_i_glide_lipo>  (1) 
-2.5225419614947451

>  <r_i_glide_metal>  (1) 
-0

>  <r_i_glide_rewards>  (1) 
-2.2854782152540074

>  <r_lp_Energy>  (1) 
22.683494

>  <r_lp_tautomer_probability>  (1) 
1

>  <s_epik_cmdline>  (1) 
J2VwaWtfcHl0aG9uJywgJy1waHQnLCAnMS4wJywgJy1waCcsICc3LjQnLCAnLXRuJywgJzgnLCAnLW1hJywgJzUwMCcsICctaW1hZScsICc8aW5maWxlLm1hZT4nLCAnLW9tYWUnLCAnPG91dGZpbGUubWFlPic=

>  <s_epik_input>  (1) 
W2NIXTFbY0hdb1tjSF1jMU4yW0NIMl1bQ0gyXVtDSF0oW0NIMl1bQ0gyXTIpW0NIMl1bQ0gyXVtDSDJdW0NASF0oW0NIMl0zKVNbQ0BASF0oW0NIMl1bT0hdKVtDQF0zKFtPSF0pQyg9TylbT0hd

>  <s_glide_docking_method>  (1) 
confgen

>  <s_i_glide_gridfile>  (1) 
gpcr_drd2_6luq_protein_autoprepared_prepared

>  <s_lp_Force_Field>  (1) 
S-OPLS

>  <s_lp_Variant>  (1) 
DiffSBDD_61_num_sample_100-3

>  <s_m_source_file>  (1) 
generated__ligand_DiffSBDD_2026-05-06_prepared.sdf

>  <GenAI_Model>  (1) 
DiffSBDD

>  <Protein>  (1) 
generic_title2

$$$$
DiffSBDD_27_num_sample_100
     RDKit          3D

  0  0  0  0  0  0  0  0  0  0999 V3000
M  V30 BEGIN CTAB
M  V30 COUNTS 57 57 0 0 1
M  V30 BEGIN ATOM
M  V30 1 C 6.413931 6.034661 -19.042601 0 CFG=2
M  V30 2 C 7.579061 5.987223 -11.612047 0
M  V30 3 N 6.613665 4.607908 -19.306606 0
M  V30 4 C 10.613702 6.164826 -6.811212 0
M  V30 5 C 4.384585 7.226965 -18.702022 0
M  V30 6 C 7.715259 6.495373 -14.094224 0
M  V30 7 N 8.129164 3.694509 -12.215868 0 CHG=1
M  V30 8 C 8.778111 4.819228 -8.935231 0
M  V30 9 C 9.760456 6.979185 -7.787979 0
M  V30 10 C 10.654920 7.601928 -8.880717 0
M  V30 11 C 8.662873 4.942741 -11.650471 0 CFG=2
M  V30 12 C 9.434465 4.754048 -10.328885 0
M  V30 13 C 6.169341 6.326021 -17.525419 0
M  V30 14 C 5.335027 6.235559 -14.673889 0
M  V30 15 C 5.135482 6.626569 -19.771692 0
M  V30 16 O 4.842659 6.564556 -20.964090 0
M  V30 17 C 7.044036 6.107398 -16.506173 0
M  V30 18 N 8.634647 6.170108 -8.344035 0 CHG=1
M  V30 19 N 6.708826 6.279564 -15.141787 0
M  V30 20 C 4.937821 7.058566 -17.535044 0
M  V30 21 C 8.474780 5.631773 -16.774499 0
M  V30 22 C 9.120820 8.142279 -7.001722 0
M  V30 23 C 7.165934 6.682494 -12.681460 0
M  V30 24 H 7.298474 6.584350 -19.364939 0
M  V30 25 H 7.122575 6.169851 -10.658291 0
M  V30 26 H 5.778949 4.071167 -19.117137 0
M  V30 27 H 6.839135 4.441112 -20.277774 0
M  V30 28 H 10.008767 5.770517 -5.995130 0
M  V30 29 H 11.098310 5.330758 -7.313122 0
M  V30 30 H 11.402317 6.774323 -6.369985 0
M  V30 31 H 3.466672 7.768881 -18.877281 0
M  V30 32 H 8.438480 5.688726 -14.113830 0
M  V30 33 H 8.234826 7.417441 -14.325752 0
M  V30 34 H 7.798866 3.860812 -13.156169 0
M  V30 35 H 8.854732 2.989496 -12.237000 0
M  V30 36 H 7.782028 4.378590 -8.980438 0
M  V30 37 H 9.344450 4.194537 -8.246796 0
M  V30 38 H 10.071199 7.992717 -9.714914 0
M  V30 39 H 11.230483 8.437523 -8.478427 0
M  V30 40 H 11.390488 6.901052 -9.269641 0
M  V30 41 H 9.425472 5.264181 -12.359309 0
M  V30 42 H 9.864280 3.762614 -10.393911 0
M  V30 43 H 10.234838 5.479899 -10.350701 0
M  V30 44 H 4.652336 5.776442 -15.385435 0
M  V30 45 H 5.232550 5.623858 -13.777348 0
M  V30 46 H 5.034803 7.256273 -14.447667 0
M  V30 47 H 8.090512 6.778519 -8.965464 0
M  V30 48 H 4.499622 7.469021 -16.641866 0
M  V30 49 H 8.866842 6.136879 -17.659152 0
M  V30 50 H 9.207428 5.812157 -15.994226 0
M  V30 51 H 8.472257 4.561397 -16.981353 0
M  V30 52 H 8.372043 7.785449 -6.292978 0
M  V30 53 H 9.857799 8.704910 -6.428564 0
M  V30 54 H 8.634730 8.854269 -7.668388 0
M  V30 55 H 6.389361 7.425074 -12.559445 0
M  V30 56 H 8.006730 6.056787 -7.558566 0
M  V30 57 H 7.361397 3.364527 -11.649137 0
M  V30 END ATOM
M  V30 BEGIN BOND
M  V30 1 1 3 1
M  V30 2 1 9 4
M  V30 3 1 10 9
M  V30 4 1 11 2
M  V30 5 1 11 7
M  V30 6 1 12 8
M  V30 7 1 12 11
M  V30 8 1 13 1
M  V30 9 1 15 1
M  V30 10 1 15 5
M  V30 11 2 16 15
M  V30 12 2 17 13
M  V30 13 1 18 8
M  V30 14 1 18 9
M  V30 15 1 19 6
M  V30 16 1 19 14
M  V30 17 1 19 17
M  V30 18 2 20 5
M  V30 19 1 20 13
M  V30 20 1 21 17
M  V30 21 1 22 9
M  V30 22 2 23 2
M  V30 23 1 23 6
M  V30 24 1 1 24 CFG=3
M  V30 25 1 25 2
M  V30 26 1 26 3
M  V30 27 1 27 3
M  V30 28 1 28 4
M  V30 29 1 29 4
M  V30 30 1 30 4
M  V30 31 1 31 5
M  V30 32 1 32 6
M  V30 33 1 33 6
M  V30 34 1 34 7
M  V30 35 1 35 7
M  V30 36 1 36 8
M  V30 37 1 37 8
M  V30 38 1 38 10
M  V30 39 1 39 10
M  V30 40 1 40 10
M  V30 41 1 11 41 CFG=3
M  V30 42 1 42 12
M  V30 43 1 43 12
M  V30 44 1 44 14
M  V30 45 1 45 14
M  V30 46 1 46 14
M  V30 47 1 47 18
M  V30 48 1 48 20
M  V30 49 1 49 21
M  V30 50 1 50 21
M  V30 51 1 51 21
M  V30 52 1 52 22
M  V30 53 1 53 22
M  V30 54 1 54 22
M  V30 55 1 55 23
M  V30 56 1 56 18
M  V30 57 1 57 7
M  V30 END BOND
M  V30 END CTAB
M  END
>  <i_epik_Tot_Q>  (1) 
2

>  <i_epik_Tot_abs_Q>  (1) 
2

>  <i_i_glide_confnum>  (1) 
199

>  <i_i_glide_lignum>  (1) 
44

>  <i_i_glide_posenum>  (1) 
323

>  <i_i_glide_rotatable_bonds>  (1) 
8

>  <i_lp_mmshare_version>  (1) 
72125

>  <i_m_source_file_index>  (1) 
28

>  <i_f3d_flags>  (1) 
0

>  <num_sample>  (1) 
100

>  <b_lp_Chiralities_Consistent>  (1) 
1

>  <r_epik_Charging_Adjusted_Penalty>  (1) 
0.47954930221194114

>  <r_epik_Ionization_Penalty>  (1) 
0.082650424812652987

>  <r_epik_Ionization_Penalty_Charging>  (1) 
0.068869463259337155

>  <r_epik_Ionization_Penalty_Neutral>  (1) 
0.013780961553315832

>  <r_epik_State_Penalty>  (1) 
0.41067983895260396

>  <r_glide_ring_energy>  (1) 
0

>  <r_i_docking_score>  (1) 
-5.9548601321109196

>  <r_i_glide_ecoul>  (1) 
-9.9722993099471289

>  <r_i_glide_eff_state_penalty>  (1) 
0.41067983895260396

>  <r_i_glide_einternal>  (1) 
9.2591857218147915

>  <r_i_glide_emodel>  (1) 
-43.903881524791053

>  <r_i_glide_emodel_strain>  (1) 
2.7412710367409829

>  <r_i_glide_energy>  (1) 
-29.496267371622601

>  <r_i_glide_erotb>  (1) 
0.88107071462136088

>  <r_i_glide_esite>  (1) 
-0.081918046070350567

>  <r_i_glide_evdw>  (1) 
-19.523968061675472

>  <r_i_glide_gscore>  (1) 
-6.3655399710635239

>  <r_i_glide_gscore_strain>  (1) 
0

>  <r_i_glide_hbond>  (1) 
-0.25857612287223092

>  <r_i_glide_ligand_efficiency>  (1) 
-0.25890696226569215

>  <r_i_glide_ligand_efficiency_ln>  (1) 
-1.43993917563079

>  <r_i_glide_ligand_efficiency_sa>  (1) 
-0.73629696084107721

>  <r_i_glide_lipo>  (1) 
-1.6024789324777924

>  <r_i_glide_metal>  (1) 
-0

>  <r_i_glide_rewards>  (1) 
-2.8315942846886673

>  <r_lp_Energy>  (1) 
30.360168999999999

>  <r_lp_tautomer_probability>  (1) 
0.5

>  <s_epik_cmdline>  (1) 
J2VwaWtfcHl0aG9uJywgJy1waHQnLCAnMS4wJywgJy1waCcsICc3LjQnLCAnLXRuJywgJzgnLCAnLW1hJywgJzUwMCcsICctaW1hZScsICc8aW5maWxlLm1hZT4nLCAnLW9tYWUnLCAnPG91dGZpbGUubWFlPic=

>  <s_epik_input>  (1) 
Tz1DMVtDSF09W0NIXUMoXFtDQEhdMVtOSDJdKT1DKFtDSDNdKS9OKFtDSDNdKVtDSDJdL1tDSF09W0NIXVxbQ0BIXShbTkgyXSlbQ0gyXVtDSDJdW05IXUMoW0NIM10pKFtDSDNdKVtDSDNd

>  <s_glide_docking_method>  (1) 
confgen

>  <s_i_glide_gridfile>  (1) 
gpcr_drd2_6luq_protein_autoprepared_prepared

>  <s_lp_Force_Field>  (1) 
S-OPLS

>  <s_lp_Variant>  (1) 
DiffSBDD_27_num_sample_100-2

>  <s_m_source_file>  (1) 
generated__ligand_DiffSBDD_2026-05-06_prepared.sdf

>  <GenAI_Model>  (1) 
DiffSBDD

>  <Protein>  (1) 
generic_title2

$$$$
DiffSBDD_28_num_sample_100
     RDKit          3D

  0  0  0  0  0  0  0  0  0  0999 V3000
M  V30 BEGIN CTAB
M  V30 COUNTS 43 44 0 0 1
M  V30 BEGIN ATOM
M  V30 1 C 11.527057 6.397216 -2.832652 0
M  V30 2 C 6.834951 5.442654 -10.897025 0
M  V30 3 C 11.183402 6.437344 -4.336269 0
M  V30 4 N 10.515601 6.764697 -7.124876 0
M  V30 5 C 12.267496 8.801452 -2.907401 0
M  V30 6 C 10.229922 6.790494 -8.374474 0
M  V30 7 C 11.927219 8.826426 -4.381519 0
M  V30 8 O 10.332144 8.023360 -10.481442 0
M  V30 9 C 9.316541 5.445834 -10.563160 0
M  V30 10 C 8.296555 6.671616 -12.476370 0
M  V30 11 C 9.494287 5.591396 -9.022674 0
M  V30 12 C 6.580857 4.294851 -11.891952 0
M  V30 13 C 11.505000 8.911774 -7.260091 0
M  V30 14 N 11.244707 8.969286 -8.629583 0
M  V30 15 N 8.122435 6.169271 -11.091709 0 CFG=1 CHG=1
M  V30 16 C 12.630746 7.385880 -2.464890 0
M  V30 17 C 10.599591 7.985067 -9.287855 0
M  V30 18 C 11.157632 7.846961 -6.505341 0
M  V30 19 C 11.434266 7.760089 -5.061368 0
M  V30 20 H 10.635122 6.569340 -2.232656 0
M  V30 21 H 11.851084 5.395018 -2.559619 0
M  V30 22 H 6.777055 5.060465 -9.879829 0
M  V30 23 H 6.023056 6.166654 -10.981783 0
M  V30 24 H 10.147206 6.136657 -4.485992 0
M  V30 25 H 11.801073 5.703811 -4.850420 0
M  V30 26 H 13.119047 9.456324 -2.734632 0
M  V30 27 H 11.434836 9.200447 -2.328940 0
M  V30 28 H 12.103986 9.759014 -4.886971 0
M  V30 29 H 10.232531 5.743791 -11.086180 0
M  V30 30 H 9.211347 4.387353 -10.802348 0
M  V30 31 H 8.499735 5.856671 -13.171908 0
M  V30 32 H 7.399851 7.194856 -12.810206 0
M  V30 33 H 9.123969 7.374930 -12.548991 0
M  V30 34 H 10.034108 4.703193 -8.691654 0
M  V30 35 H 8.523285 5.510012 -8.533804 0
M  V30 36 H 5.660973 3.769891 -11.633293 0
M  V30 37 H 6.459660 4.660880 -12.911339 0
M  V30 38 H 7.385475 3.561133 -11.892021 0
M  V30 39 H 12.007927 9.784726 -6.881996 0
M  V30 40 H 11.540595 9.794495 -9.129205 0
M  V30 41 H 12.841615 7.358937 -1.398243 0
M  V30 42 H 13.544546 7.085668 -2.975306 0
M  V30 43 H 8.000563 6.995653 -10.503021 0
M  V30 END ATOM
M  V30 BEGIN BOND
M  V30 1 1 3 1
M  V30 2 2 6 4
M  V30 3 1 7 5
M  V30 4 1 11 6
M  V30 5 1 11 9
M  V30 6 1 12 2
M  V30 7 1 14 13
M  V30 8 1 15 2
M  V30 9 1 15 9
M  V30 10 1 15 10
M  V30 11 1 16 1
M  V30 12 1 16 5
M  V30 13 1 17 6
M  V30 14 2 17 8
M  V30 15 1 17 14
M  V30 16 1 18 4
M  V30 17 2 18 13
M  V30 18 1 19 3
M  V30 19 2 19 7
M  V30 20 1 19 18
M  V30 21 1 20 1
M  V30 22 1 21 1
M  V30 23 1 22 2
M  V30 24 1 23 2
M  V30 25 1 24 3
M  V30 26 1 25 3
M  V30 27 1 26 5
M  V30 28 1 27 5
M  V30 29 1 28 7
M  V30 30 1 29 9
M  V30 31 1 30 9
M  V30 32 1 31 10
M  V30 33 1 32 10
M  V30 34 1 33 10
M  V30 35 1 34 11
M  V30 36 1 35 11
M  V30 37 1 36 12
M  V30 38 1 37 12
M  V30 39 1 38 12
M  V30 40 1 39 13
M  V30 41 1 40 14
M  V30 42 1 41 16
M  V30 43 1 42 16
M  V30 44 1 15 43 CFG=1
M  V30 END BOND
M  V30 END CTAB
M  END
>  <i_epik_Tot_Q>  (1) 
1

>  <i_epik_Tot_abs_Q>  (1) 
1

>  <i_i_glide_confnum>  (1) 
60

>  <i_i_glide_lignum>  (1) 
47

>  <i_i_glide_posenum>  (1) 
14

>  <i_i_glide_rotatable_bonds>  (1) 
5

>  <i_lp_mmshare_version>  (1) 
72125

>  <i_m_source_file_index>  (1) 
29

>  <i_f3d_flags>  (1) 
0

>  <num_sample>  (1) 
100

>  <b_lp_Chiralities_Consistent>  (1) 
1

>  <r_epik_Charging_Adjusted_Penalty>  (1) 
0.16160378579191387

>  <r_epik_Ionization_Penalty>  (1) 
0.086651210493904285

>  <r_epik_Ionization_Penalty_Charging>  (1) 
0.086651186480528317

>  <r_epik_Ionization_Penalty_Neutral>  (1) 
2.4013375966173516e-08

>  <r_epik_State_Penalty>  (1) 
0.074952599311385565

>  <r_glide_ring_energy>  (1) 
0.00030344837723515978

>  <r_i_docking_score>  (1) 
-5.954527854438056

>  <r_i_glide_ecoul>  (1) 
-5.272191998887287

>  <r_i_glide_eff_state_penalty>  (1) 
0.074952599311385565

>  <r_i_glide_einternal>  (1) 
14.398242533217603

>  <r_i_glide_emodel>  (1) 
-45.459521385849804

>  <r_i_glide_emodel_strain>  (1) 
0.52768415404663926

>  <r_i_glide_energy>  (1) 
-37.813691949014398

>  <r_i_glide_erotb>  (1) 
1.0307106156986021

>  <r_i_glide_esite>  (1) 
-0.092980908519049138

>  <r_i_glide_evdw>  (1) 
-32.541499950127111

>  <r_i_glide_gscore>  (1) 
-6.029480453749442

>  <r_i_glide_gscore_strain>  (1) 
0

>  <r_i_glide_hbond>  (1) 
-0.18238152404180097

>  <r_i_glide_ligand_efficiency>  (1) 
-0.31339620286516084

>  <r_i_glide_ligand_efficiency_ln>  (1) 
-1.509600702631835

>  <r_i_glide_ligand_efficiency_sa>  (1) 
-0.8362669444285924

>  <r_i_glide_lipo>  (1) 
-2.0379665295757823

>  <r_i_glide_metal>  (1) 
-0

>  <r_i_glide_rewards>  (1) 
-2.3289583099719637

>  <r_lp_Energy>  (1) 
45.398657999999998

>  <s_epik_cmdline>  (1) 
J2VwaWtfcHl0aG9uJywgJy1waHQnLCAnMS4wJywgJy1waCcsICc3LjQnLCAnLXRuJywgJzgnLCAnLW1hJywgJzUwMCcsICctaW1hZScsICc8aW5maWxlLm1hZT4nLCAnLW9tYWUnLCAnPG91dGZpbGUubWFlPic=

>  <s_epik_input>  (1) 
W0NIMl0xW0NIMl1bQ0gyXVtDSDJdW0NIXT1DMWMoW2NIXVtuSF1jMj1PKW5jMltDSDJdW0NIMl1OKFtDSDNdKVtDSDJdW0NIM10=

>  <s_glide_docking_method>  (1) 
confgen

>  <s_i_glide_gridfile>  (1) 
gpcr_drd2_6luq_protein_autoprepared_prepared

>  <s_lp_Force_Field>  (1) 
S-OPLS

>  <s_lp_Variant>  (1) 
DiffSBDD_28_num_sample_100-1

>  <s_m_source_file>  (1) 
generated__ligand_DiffSBDD_2026-05-06_prepared.sdf

>  <GenAI_Model>  (1) 
DiffSBDD

>  <Protein>  (1) 
generic_title2

$$$$
DiffSBDD_15_num_sample_100
     RDKit          3D

  0  0  0  0  0  0  0  0  0  0999 V3000
M  V30 BEGIN CTAB
M  V30 COUNTS 48 51 0 0 1
M  V30 BEGIN ATOM
M  V30 1 C 9.822330 6.348814 -8.622051 0
M  V30 2 C 12.483546 9.296377 -6.326677 0
M  V30 3 C 10.632198 6.760575 -6.322265 0
M  V30 4 C 7.706180 5.550802 -14.432694 0
M  V30 5 C 10.613529 7.552931 -10.573630 0
M  V30 6 C 9.785082 6.569278 -10.010795 0
M  V30 7 C 11.434856 8.935359 -5.351480 0
M  V30 8 C 8.873241 5.758098 -10.858002 0
M  V30 9 C 8.120470 4.379982 -15.332919 0
M  V30 10 C 11.001541 7.519020 -5.283899 0
M  V30 11 C 6.481575 1.606422 -13.168180 0
M  V30 12 C 11.471821 8.306535 -9.764700 0
M  V30 13 C 7.250798 3.163171 -14.971549 0 CFG=2
M  V30 14 C 10.659355 7.113735 -7.771088 0
M  V30 15 C 12.491663 8.969302 -7.623358 0
M  V30 16 F 7.098281 2.325396 -17.147745 0
M  V30 17 C 7.406880 2.798300 -13.479632 0 CFG=1
M  V30 18 N 7.875417 5.199438 -13.028097 0
M  V30 19 C 6.704060 0.458288 -14.162771 0
M  V30 20 C 8.718626 5.935296 -12.190666 0
M  V30 21 F 8.634856 1.489481 -15.910564 0
M  V30 22 C 11.513188 8.125709 -8.365000 0
M  V30 23 O 6.476622 0.926563 -15.487077 0
M  V30 24 C 7.387329 1.937228 -15.905755 0
M  V30 25 C 7.104136 4.031667 -12.587339 0
M  V30 26 H 9.189450 5.585057 -8.193303 0
M  V30 27 H 13.276471 9.925705 -5.947905 0
M  V30 28 H 10.264047 5.769302 -6.102246 0
M  V30 29 H 6.654954 5.789719 -14.598749 0
M  V30 30 H 8.251237 6.456306 -14.687466 0
M  V30 31 H 10.603857 7.729773 -11.634793 0
M  V30 32 H 11.816286 9.197391 -4.364265 0
M  V30 33 H 10.563936 9.570416 -5.515299 0
M  V30 34 H 8.310684 4.991941 -10.352296 0
M  V30 35 H 7.976515 4.654028 -16.378222 0
M  V30 36 H 9.181939 4.169276 -15.205449 0
M  V30 37 H 10.920882 7.102836 -4.291685 0
M  V30 38 H 5.439454 1.922931 -13.224982 0
M  V30 39 H 6.634789 1.239428 -12.156085 0
M  V30 40 H 12.111217 9.047967 -10.222361 0
M  V30 41 H 6.234817 3.509872 -15.091644 0
M  V30 42 H 13.295707 9.361106 -8.224697 0
M  V30 43 H 8.438660 2.490948 -13.302477 0
M  V30 44 H 6.005670 -0.352831 -13.957221 0
M  V30 45 H 7.708317 0.041647 -14.067105 0
M  V30 46 H 9.261816 6.699682 -12.717919 0
M  V30 47 H 7.279790 3.769359 -11.548747 0
M  V30 48 H 6.046201 4.288146 -12.655697 0
M  V30 END ATOM
M  V30 BEGIN BOND
M  V30 1 2 6 1
M  V30 2 1 6 5
M  V30 3 1 7 2
M  V30 4 1 8 6
M  V30 5 1 9 4
M  V30 6 2 10 3
M  V30 7 1 10 7
M  V30 8 2 12 5
M  V30 9 1 13 9
M  V30 10 1 14 1
M  V30 11 1 14 3
M  V30 12 2 15 2
M  V30 13 1 17 11
M  V30 14 1 17 13
M  V30 15 1 18 4
M  V30 16 1 19 11
M  V30 17 2 20 8
M  V30 18 1 20 18
M  V30 19 1 22 12
M  V30 20 2 22 14
M  V30 21 1 22 15
M  V30 22 1 23 19
M  V30 23 1 24 13
M  V30 24 1 24 16
M  V30 25 1 24 21
M  V30 26 1 24 23
M  V30 27 1 25 17
M  V30 28 1 25 18
M  V30 29 1 26 1
M  V30 30 1 27 2
M  V30 31 1 28 3
M  V30 32 1 29 4
M  V30 33 1 30 4
M  V30 34 1 31 5
M  V30 35 1 32 7
M  V30 36 1 33 7
M  V30 37 1 34 8
M  V30 38 1 35 9
M  V30 39 1 36 9
M  V30 40 1 37 10
M  V30 41 1 38 11
M  V30 42 1 39 11
M  V30 43 1 40 12
M  V30 44 1 13 41 CFG=1
M  V30 45 1 42 15
M  V30 46 1 17 43 CFG=3
M  V30 47 1 44 19
M  V30 48 1 45 19
M  V30 49 1 46 20
M  V30 50 1 47 25
M  V30 51 1 48 25
M  V30 END BOND
M  V30 END CTAB
M  END
>  <i_epik_Tot_Q>  (1) 
0

>  <i_epik_Tot_abs_Q>  (1) 
0

>  <i_i_glide_confnum>  (1) 
2

>  <i_i_glide_lignum>  (1) 
24

>  <i_i_glide_posenum>  (1) 
131

>  <i_i_glide_rotatable_bonds>  (1) 
2

>  <i_lp_mmshare_version>  (1) 
72125

>  <i_m_source_file_index>  (1) 
16

>  <i_f3d_flags>  (1) 
0

>  <num_sample>  (1) 
100

>  <b_lp_Chiralities_Consistent>  (1) 
1

>  <r_epik_Charging_Adjusted_Penalty>  (1) 
0.41067983895260396

>  <r_epik_Ionization_Penalty>  (1) 
0.00043588865487499098

>  <r_epik_Ionization_Penalty_Charging>  (1) 
0

>  <r_epik_Ionization_Penalty_Neutral>  (1) 
0.00043588865487499098

>  <r_epik_State_Penalty>  (1) 
0.41067983895260396

>  <r_glide_ring_energy>  (1) 
0

>  <r_i_docking_score>  (1) 
-5.9447804360612588

>  <r_i_glide_ecoul>  (1) 
-0.065449700829871893

>  <r_i_glide_eff_state_penalty>  (1) 
0.41067983895260396

>  <r_i_glide_einternal>  (1) 
1.4412696868539556

>  <r_i_glide_emodel>  (1) 
-41.179086025621643

>  <r_i_glide_emodel_strain>  (1) 
0

>  <r_i_glide_energy>  (1) 
-32.459297213098466

>  <r_i_glide_erotb>  (1) 
0.32177656458331499

>  <r_i_glide_esite>  (1) 
0

>  <r_i_glide_evdw>  (1) 
-32.393847512268593

>  <r_i_glide_gscore>  (1) 
-6.3554602750138631

>  <r_i_glide_gscore_strain>  (1) 
0

>  <r_i_glide_hbond>  (1) 
0

>  <r_i_glide_ligand_efficiency>  (1) 
-0.23779121744245035

>  <r_i_glide_ligand_efficiency_ln>  (1) 
-1.4090911140403084

>  <r_i_glide_ligand_efficiency_sa>  (1) 
-0.69530573779295757

>  <r_i_glide_lipo>  (1) 
-2.8979270846978942

>  <r_i_glide_metal>  (1) 
-0

>  <r_i_glide_rewards>  (1) 
-2.1497999241613721

>  <r_lp_Energy>  (1) 
29.411313

>  <r_lp_tautomer_probability>  (1) 
0.5

>  <s_epik_cmdline>  (1) 
J2VwaWtfcHl0aG9uJywgJy1waHQnLCAnMS4wJywgJy1waCcsICc3LjQnLCAnLXRuJywgJzgnLCAnLW1hJywgJzUwMCcsICctaW1hZScsICc8aW5maWxlLm1hZT4nLCAnLW9tYWUnLCAnPG91dGZpbGUubWFlPic=

>  <s_epik_input>  (1) 
W0NIXTE9W0NIXVtDSDJdW0NIXT1bQ0hdYyhjMTIpW2NIXVtjSF1jKFtjSF0yKS9bQ0hdPVtDSF0vTihbQ0gyXVtDSDJdMylbQ0gyXVtDQEhdKFtDQEBIXTM0KVtDSDJdW0NIMl1PQzQoRilG

>  <s_glide_docking_method>  (1) 
confgen

>  <s_i_glide_gridfile>  (1) 
gpcr_drd2_6luq_protein_autoprepared_prepared

>  <s_lp_Force_Field>  (1) 
S-OPLS

>  <s_lp_Variant>  (1) 
DiffSBDD_15_num_sample_100-1

>  <s_m_source_file>  (1) 
generated__ligand_DiffSBDD_2026-05-06_prepared.sdf

>  <GenAI_Model>  (1) 
DiffSBDD

>  <Protein>  (1) 
generic_title2

$$$$
DiffSBDD_44_num_sample_100
     RDKit          3D

  0  0  0  0  0  0  0  0  0  0999 V3000
M  V30 BEGIN CTAB
M  V30 COUNTS 55 57 0 0 1
M  V30 BEGIN ATOM
M  V30 1 C 7.221166 4.643430 -10.438306 0
M  V30 2 C 7.291737 5.015411 -11.944733 0 CFG=1
M  V30 3 C 11.884906 9.039413 -4.581893 0
M  V30 4 C 11.997991 6.889077 -2.783393 0
M  V30 5 C 11.480536 6.680953 -4.081781 0
M  V30 6 C 10.908001 7.362450 -11.128479 0
M  V30 7 C 7.378388 3.746409 -12.769698 0
M  V30 8 N 6.060891 5.607798 -12.478952 0
M  V30 9 C 11.484080 7.965662 -9.848520 0
M  V30 10 C 11.157333 8.346991 -7.383718 0
M  V30 11 O 11.830744 9.369533 -7.348136 0
M  V30 12 C 12.441695 8.151835 -2.394643 0
M  V30 13 N 12.078784 5.844976 -1.891733 0
M  V30 14 C 6.218482 3.505740 -13.680105 0
M  V30 15 N 10.947720 7.524287 -6.353375 0
M  V30 16 C 9.627157 8.036393 -11.640105 0
M  V30 17 O 9.297554 5.692319 -13.112617 0
M  V30 18 C 10.017441 6.477472 -8.225766 0
M  V30 19 C 5.251795 4.564915 -13.119743 0
M  V30 20 N 8.534026 7.093244 -11.511911 0
M  V30 21 C 5.321200 6.524044 -11.620206 0
M  V30 22 C 10.507124 7.892969 -8.658841 0 CFG=2
M  V30 23 C 10.273738 6.295129 -6.701076 0
M  V30 24 C 11.434983 7.755752 -5.000877 0
M  V30 25 C 8.467443 5.968793 -12.244743 0
M  V30 26 C 12.382071 9.217788 -3.284205 0
M  V30 27 O 8.325988 2.965000 -12.695337 0
M  V30 28 H 8.155320 4.183796 -10.110026 0
M  V30 29 H 7.054930 5.506118 -9.793881 0
M  V30 30 H 6.420018 3.934300 -10.229669 0
M  V30 31 H 11.850801 9.884820 -5.237702 0
M  V30 32 H 11.145354 5.700348 -4.373656 0
M  V30 33 H 11.662270 7.356054 -11.918025 0
M  V30 34 H 10.634839 6.329799 -10.926261 0
M  V30 35 H 11.749906 9.006728 -10.039197 0
M  V30 36 H 12.415463 7.453973 -9.595472 0
M  V30 37 H 12.835484 8.304370 -1.400297 0
M  V30 38 H 12.357255 5.999592 -0.934541 0
M  V30 39 H 11.639692 4.950691 -2.094470 0
M  V30 40 H 6.523947 3.714662 -14.704296 0
M  V30 41 H 5.841885 2.486361 -13.598012 0
M  V30 42 H 9.365293 8.929277 -11.074261 0
M  V30 43 H 9.744673 8.328406 -12.680548 0
M  V30 44 H 8.957771 6.358199 -8.450019 0
M  V30 45 H 10.542898 5.698552 -8.776392 0
M  V30 46 H 4.631800 4.994080 -13.899411 0
M  V30 47 H 4.594452 4.124311 -12.375667 0
M  V30 48 H 7.819939 7.281990 -10.807453 0
M  V30 49 H 4.634864 7.104911 -12.223211 0
M  V30 50 H 4.782739 6.009193 -10.821279 0
M  V30 51 H 5.958224 7.269258 -11.172849 0
M  V30 52 H 9.641245 8.533856 -8.827366 0
M  V30 53 H 10.936848 5.443392 -6.558984 0
M  V30 54 H 9.350220 6.170811 -6.133085 0
M  V30 55 H 12.725997 10.170110 -2.972759 0
M  V30 END ATOM
M  V30 BEGIN BOND
M  V30 1 1 2 1 CFG=1
M  V30 2 2 5 4
M  V30 3 1 7 2
M  V30 4 1 8 2
M  V30 5 1 9 6
M  V30 6 2 11 10
M  V30 7 1 12 4
M  V30 8 1 13 4
M  V30 9 1 14 7
M  V30 10 1 15 10
M  V30 11 1 16 6
M  V30 12 1 19 8
M  V30 13 1 19 14
M  V30 14 1 20 16
M  V30 15 1 21 8
M  V30 16 1 22 9
M  V30 17 1 22 10
M  V30 18 1 22 18
M  V30 19 1 23 15
M  V30 20 1 23 18
M  V30 21 2 24 3
M  V30 22 1 24 5
M  V30 23 1 24 15
M  V30 24 1 25 2
M  V30 25 2 25 17
M  V30 26 1 25 20
M  V30 27 1 26 3
M  V30 28 2 26 12
M  V30 29 2 27 7
M  V30 30 1 28 1
M  V30 31 1 29 1
M  V30 32 1 30 1
M  V30 33 1 31 3
M  V30 34 1 32 5
M  V30 35 1 33 6
M  V30 36 1 34 6
M  V30 37 1 35 9
M  V30 38 1 36 9
M  V30 39 1 37 12
M  V30 40 1 38 13
M  V30 41 1 39 13
M  V30 42 1 40 14
M  V30 43 1 41 14
M  V30 44 1 42 16
M  V30 45 1 43 16
M  V30 46 1 44 18
M  V30 47 1 45 18
M  V30 48 1 46 19
M  V30 49 1 47 19
M  V30 50 1 48 20
M  V30 51 1 49 21
M  V30 52 1 50 21
M  V30 53 1 51 21
M  V30 54 1 22 52 CFG=3
M  V30 55 1 53 23
M  V30 56 1 54 23
M  V30 57 1 55 26
M  V30 END BOND
M  V30 END CTAB
M  END
>  <i_epik_Tot_Q>  (1) 
0

>  <i_epik_Tot_abs_Q>  (1) 
0

>  <i_i_glide_confnum>  (1) 
435

>  <i_i_glide_lignum>  (1) 
77

>  <i_i_glide_posenum>  (1) 
399

>  <i_i_glide_rotatable_bonds>  (1) 
7

>  <i_lp_mmshare_version>  (1) 
72125

>  <i_m_source_file_index>  (1) 
45

>  <i_f3d_flags>  (1) 
0

>  <num_sample>  (1) 
100

>  <b_lp_Chiralities_Consistent>  (1) 
1

>  <r_epik_Charging_Adjusted_Penalty>  (1) 
0.38370982414574223

>  <r_epik_Ionization_Penalty>  (1) 
0.3841777034394574

>  <r_epik_Ionization_Penalty_Charging>  (1) 
0

>  <r_epik_Ionization_Penalty_Neutral>  (1) 
0.3841777034394574

>  <r_epik_State_Penalty>  (1) 
0.38370982414574223

>  <r_glide_ring_energy>  (1) 
0

>  <r_i_docking_score>  (1) 
-5.939577004954109

>  <r_i_glide_ecoul>  (1) 
-5.8928507460964834

>  <r_i_glide_eff_state_penalty>  (1) 
0.38370982414574223

>  <r_i_glide_einternal>  (1) 
7.5766171276027308

>  <r_i_glide_emodel>  (1) 
-45.168396500085812

>  <r_i_glide_emodel_strain>  (1) 
0.78478384049871863

>  <r_i_glide_energy>  (1) 
-35.62044389096117

>  <r_i_glide_erotb>  (1) 
0.97453214498294238

>  <r_i_glide_esite>  (1) 
-0.12580864721190418

>  <r_i_glide_evdw>  (1) 
-29.727593144864684

>  <r_i_glide_gscore>  (1) 
-6.3232868290998514

>  <r_i_glide_gscore_strain>  (1) 
0

>  <r_i_glide_hbond>  (1) 
-0.16

>  <r_i_glide_ligand_efficiency>  (1) 
-0.21998433351681884

>  <r_i_glide_ligand_efficiency_ln>  (1) 
-1.3826356051734026

>  <r_i_glide_ligand_efficiency_sa>  (1) 
-0.65995300055045669

>  <r_i_glide_lipo>  (1) 
-2.4010598964193259

>  <r_i_glide_metal>  (1) 
-0

>  <r_i_glide_rewards>  (1) 
-2.2406431612938555

>  <r_lp_Energy>  (1) 
23.583355999999998

>  <r_lp_tautomer_probability>  (1) 
0.99995000000000001

>  <s_epik_cmdline>  (1) 
J2VwaWtfcHl0aG9uJywgJy1waHQnLCAnMS4wJywgJy1waCcsICc3LjQnLCAnLXRuJywgJzgnLCAnLW1hJywgJzUwMCcsICctaW1hZScsICc8aW5maWxlLm1hZT4nLCAnLW9tYWUnLCAnPG91dGZpbGUubWFlPic=

>  <s_epik_input>  (1) 
W0NIM11OMVtDSDJdW0NIMl1DKD1PKVtDQEBdMShbQ0gzXSlDKD1PKVtOSF1bQ0gyXVtDSDJdW0NIMl1bQ0BASF0yW0NIMl1bQ0gyXU4oQzI9TyljKFtjSF1bY0hdW2NIXTMpW2NIXWMzW05IMl0=

>  <s_glide_docking_method>  (1) 
confgen

>  <s_i_glide_gridfile>  (1) 
gpcr_drd2_6luq_protein_autoprepared_prepared

>  <s_lp_Force_Field>  (1) 
S-OPLS

>  <s_lp_Variant>  (1) 
DiffSBDD_44_num_sample_100-2

>  <s_m_source_file>  (1) 
generated__ligand_DiffSBDD_2026-05-06_prepared.sdf

>  <GenAI_Model>  (1) 
DiffSBDD

>  <Protein>  (1) 
generic_title2

$$$$
DiffSBDD_7_num_sample_100
     RDKit          3D

  0  0  0  0  0  0  0  0  0  0999 V3000
M  V30 BEGIN CTAB
M  V30 COUNTS 60 64 0 0 1
M  V30 BEGIN ATOM
M  V30 1 C 9.434836 8.087417 -9.526053 0 CFG=1
M  V30 2 C 11.399019 6.569293 -4.641475 0
M  V30 3 C 11.834855 7.518727 -3.700915 0
M  V30 4 O 9.265757 7.407384 -8.261077 0
M  V30 5 C 8.870102 5.198010 -11.837726 0 CFG=2
M  V30 6 C 6.973143 0.545386 -13.437801 0
M  V30 7 F 10.898750 6.569307 -1.789088 0
M  V30 8 C 6.346867 2.938203 -12.774093 0
M  V30 9 C 7.913636 3.500549 -14.742454 0 CFG=2
M  V30 10 C 12.024345 7.108331 -2.255917 0
M  V30 11 C 9.956908 8.634130 -8.233200 0 CFG=1
M  V30 12 C 6.688490 1.753748 -16.396667 0
M  V30 13 F 12.976286 6.180366 -2.191905 0
M  V30 14 C 10.052961 7.350216 -11.721327 0 CFG=1
M  V30 15 C 10.165208 5.141842 -12.645621 0
M  V30 16 N 9.897526 6.983812 -10.333339 0
M  V30 17 C 10.978730 6.438413 -12.459171 0
M  V30 18 C 7.237167 4.635439 -15.545505 0
M  V30 19 O 6.234848 5.185312 -15.038905 0
M  V30 20 C 7.835923 2.084207 -15.413020 0 CFG=2
M  V30 21 F 12.371664 8.146969 -1.491671 0
M  V30 22 O 7.744333 4.922884 -16.652689 0 CHG=-1
M  V30 23 C 12.093416 8.848849 -4.107628 0
M  V30 24 C 11.928834 9.214136 -5.457586 0
M  V30 25 C 11.394289 8.613607 -7.851914 0
M  V30 26 O 8.234839 -0.230694 -15.243440 0
M  V30 27 C 11.515285 8.248188 -6.400530 0
M  V30 28 C 7.692747 3.540807 -13.197039 0 CFG=1
M  V30 29 C 6.234841 1.416134 -12.725202 0
M  V30 30 C 11.239650 6.930917 -5.987231 0
M  V30 31 O 7.750871 4.883756 -12.671023 0
M  V30 32 C 8.840221 6.601867 -11.292220 0 CFG=2
M  V30 33 C 8.064534 0.905409 -14.433919 0 CFG=2
M  V30 34 H 8.634844 8.672604 -9.964216 0
M  V30 35 H 11.194152 5.558972 -4.328902 0
M  V30 36 H 8.895003 4.509622 -10.989935 0
M  V30 37 H 6.789452 -0.512324 -13.305090 0
M  V30 38 H 5.528526 3.337550 -13.372009 0
M  V30 39 H 6.151249 3.275808 -11.755781 0
M  V30 40 H 8.954786 3.769308 -14.873633 0
M  V30 41 H 9.354862 9.369302 -7.709134 0
M  V30 42 H 5.824760 1.369276 -15.868297 0
M  V30 43 H 6.414909 2.569292 -17.055746 0
M  V30 44 H 6.989153 0.961878 -17.083274 0
M  V30 45 H 10.050652 8.425117 -11.881484 0
M  V30 46 H 10.634839 4.233699 -12.291668 0
M  V30 47 H 9.980532 5.058833 -13.708262 0
M  V30 48 H 11.895112 6.292795 -11.891736 0
M  V30 49 H 11.267018 6.872336 -13.415515 0
M  V30 50 H 8.707480 2.079035 -16.070377 0
M  V30 51 H 12.425195 9.582537 -3.387392 0
M  V30 52 H 12.138252 10.227334 -5.773570 0
M  V30 53 H 11.928757 7.881474 -8.458334 0
M  V30 54 H 11.834834 9.589417 -8.051611 0
M  V30 55 H 7.404757 -0.450912 -15.638168 0
M  V30 56 H 8.478308 2.958625 -12.711858 0
M  V30 57 H 5.487921 1.020080 -12.054181 0
M  V30 58 H 10.918159 6.193849 -6.708838 0
M  V30 59 H 7.881145 7.075522 -11.098624 0
M  V30 60 H 8.995191 1.035481 -13.882653 0
M  V30 END ATOM
M  V30 BEGIN BOND
M  V30 1 2 3 2
M  V30 2 1 4 1
M  V30 3 1 10 3
M  V30 4 1 10 7
M  V30 5 1 11 1
M  V30 6 1 11 4
M  V30 7 1 13 10
M  V30 8 1 15 5
M  V30 9 1 16 1
M  V30 10 1 16 14
M  V30 11 1 17 14
M  V30 12 1 17 15
M  V30 13 1 18 9
M  V30 14 2 19 18
M  V30 15 1 20 9
M  V30 16 1 20 12
M  V30 17 1 21 10
M  V30 18 1 22 18
M  V30 19 1 23 3
M  V30 20 2 24 23
M  V30 21 1 25 11
M  V30 22 1 27 24
M  V30 23 1 27 25
M  V30 24 1 28 8
M  V30 25 1 28 9
M  V30 26 2 29 6
M  V30 27 1 29 8
M  V30 28 1 30 2
M  V30 29 2 30 27
M  V30 30 1 31 5
M  V30 31 1 31 28
M  V30 32 1 32 5
M  V30 33 1 32 14
M  V30 34 1 32 16
M  V30 35 1 33 6
M  V30 36 1 33 20
M  V30 37 1 33 26
M  V30 38 1 1 34 CFG=3
M  V30 39 1 35 2
M  V30 40 1 5 36 CFG=1
M  V30 41 1 37 6
M  V30 42 1 38 8
M  V30 43 1 39 8
M  V30 44 1 9 40 CFG=1
M  V30 45 1 11 41 CFG=1
M  V30 46 1 42 12
M  V30 47 1 43 12
M  V30 48 1 44 12
M  V30 49 1 14 45 CFG=1
M  V30 50 1 46 15
M  V30 51 1 47 15
M  V30 52 1 48 17
M  V30 53 1 49 17
M  V30 54 1 20 50 CFG=3
M  V30 55 1 51 23
M  V30 56 1 52 24
M  V30 57 1 53 25
M  V30 58 1 54 25
M  V30 59 1 55 26
M  V30 60 1 28 56 CFG=1
M  V30 61 1 57 29
M  V30 62 1 58 30
M  V30 63 1 32 59 CFG=1
M  V30 64 1 33 60 CFG=1
M  V30 END BOND
M  V30 END CTAB
M  END
>  <i_epik_Tot_Q>  (1) 
-1

>  <i_epik_Tot_abs_Q>  (1) 
1

>  <i_i_glide_confnum>  (1) 
4

>  <i_i_glide_lignum>  (1) 
12

>  <i_i_glide_posenum>  (1) 
16

>  <i_i_glide_rotatable_bonds>  (1) 
8

>  <i_lp_mmshare_version>  (1) 
72125

>  <i_m_source_file_index>  (1) 
8

>  <i_f3d_flags>  (1) 
2

>  <num_sample>  (1) 
100

>  <b_lp_Chiralities_Consistent>  (1) 
0

>  <r_epik_Charging_Adjusted_Penalty>  (1) 
0.34130138700725487

>  <r_epik_Ionization_Penalty>  (1) 
0.34130148480546119

>  <r_epik_Ionization_Penalty_Charging>  (1) 
0.00038214034829849426

>  <r_epik_Ionization_Penalty_Neutral>  (1) 
0.34091934445716271

>  <r_epik_State_Penalty>  (1) 
0.3409192466589564

>  <r_glide_ring_energy>  (1) 
0.19892847776593692

>  <r_i_docking_score>  (1) 
-5.9203011679650457

>  <r_i_glide_ecoul>  (1) 
0.09516705101401185

>  <r_i_glide_eff_state_penalty>  (1) 
0.3409192466589564

>  <r_i_glide_einternal>  (1) 
5.9712831886607702

>  <r_i_glide_emodel>  (1) 
-33.88159729089773

>  <r_i_glide_emodel_strain>  (1) 
2.5452123145524723

>  <r_i_glide_energy>  (1) 
-26.60706646588774

>  <r_i_glide_erotb>  (1) 
0.46357030645473651

>  <r_i_glide_esite>  (1) 
-0.10000000000000001

>  <r_i_glide_evdw>  (1) 
-26.702233516901753

>  <r_i_glide_gscore>  (1) 
-6.2612204146240025

>  <r_i_glide_gscore_strain>  (1) 
0

>  <r_i_glide_hbond>  (1) 
0

>  <r_i_glide_ligand_efficiency>  (1) 
-0.17940306569591047

>  <r_i_glide_ligand_efficiency_ln>  (1) 
-1.3166443260765279

>  <r_i_glide_ligand_efficiency_sa>  (1) 
-0.57544149212612949

>  <r_i_glide_lipo>  (1) 
-3.5149680009204127

>  <r_i_glide_metal>  (1) 
-0

>  <r_i_glide_rewards>  (1) 
-1.7889861019653395

>  <r_lp_Energy>  (1) 
31.397698999999999

>  <s_epik_Chemistry_Notes>  (1) 
This compound contains an acetal/aminal-like group ( X-CH(R)-Y where X, Y are N, S, or O) that may be acid/base labile, releasing an aldehyde.

>  <s_epik_cmdline>  (1) 
J2VwaWtfcHl0aG9uJywgJy1waHQnLCAnMS4wJywgJy1waCcsICc3LjQnLCAnLXRuJywgJzgnLCAnLW1hJywgJzUwMCcsICctaW1hZScsICc8aW5maWxlLm1hZT4nLCAnLW9tYWUnLCAnPG91dGZpbGUubWFlPic=

>  <s_epik_input>  (1) 
RkMoRikoRiljMVtjSF1bY0hdYyhbY0hdW2NIXTEpW0NIMl1bQ0BASF0yT1tDSF0yTjNbQ0BASF0oW0NASF0zNClbQ0BIXShbQ0gyXVtDSDJdNClPW0NASF01W0NIMl1bQ0hdPVtDSF1bQ0BASF0oW09IXSlbQ0BASF0oW0NIM10pW0NASF01Qyg9TylbT0hd

>  <s_glide_docking_method>  (1) 
confgen

>  <s_i_glide_gridfile>  (1) 
gpcr_drd2_6luq_protein_autoprepared_prepared

>  <s_lp_Force_Field>  (1) 
S-OPLS

>  <s_lp_Variant>  (1) 
DiffSBDD_7_num_sample_100-1

>  <s_m_source_file>  (1) 
generated__ligand_DiffSBDD_2026-05-06_prepared.sdf

>  <GenAI_Model>  (1) 
DiffSBDD

>  <Protein>  (1) 
generic_title2

$$$$
DiffSBDD_27_num_sample_100
     RDKit          3D

  0  0  0  0  0  0  0  0  0  0999 V3000
M  V30 BEGIN CTAB
M  V30 COUNTS 57 57 0 0 1
M  V30 BEGIN ATOM
M  V30 1 C 6.985804 0.802058 -16.018920 0 CFG=2
M  V30 2 C 9.337907 5.408266 -11.066939 0
M  V30 3 N 6.082646 0.235448 -15.012067 0
M  V30 4 C 11.095449 9.644367 -5.623834 0
M  V30 5 C 6.566906 2.050907 -17.993166 0
M  V30 6 C 9.053488 4.774209 -13.488192 0
M  V30 7 N 7.495381 5.369301 -9.433067 0 CHG=1
M  V30 8 C 9.380994 6.646799 -7.352818 0
M  V30 9 C 11.052111 8.247515 -6.270074 0
M  V30 10 C 11.440403 7.201592 -5.206720 0
M  V30 11 C 8.956322 5.418652 -9.594760 0 CFG=2
M  V30 12 C 9.527916 6.654171 -8.883582 0
M  V30 13 C 7.301819 2.327391 -15.797717 0
M  V30 14 C 7.523171 5.297383 -15.338376 0
M  V30 15 C 6.410180 0.712033 -17.491150 0
M  V30 16 O 5.906902 -0.260566 -18.050214 0
M  V30 17 C 7.846562 2.869767 -14.664264 0
M  V30 18 N 9.672215 7.978894 -6.763851 0 CHG=1
M  V30 19 N 8.104669 4.263830 -14.487093 0
M  V30 20 C 7.035520 2.881954 -17.096866 0
M  V30 21 C 8.235347 1.983868 -13.472856 0
M  V30 22 C 12.058923 8.246034 -7.433051 0
M  V30 23 C 8.634957 4.787759 -12.032586 0
M  V30 24 H 7.929070 0.251507 -15.989541 0
M  V30 25 H 10.239916 5.936404 -11.331861 0
M  V30 26 H 5.137155 0.579228 -15.116577 0
M  V30 27 H 6.022907 -0.773062 -15.090485 0
M  V30 28 H 10.648364 10.403674 -6.250864 0
M  V30 29 H 10.628700 9.674794 -4.640303 0
M  V30 30 H 12.121100 9.970437 -5.467909 0
M  V30 31 H 6.327776 2.313371 -19.015744 0
M  V30 32 H 9.957600 4.170783 -13.549601 0
M  V30 33 H 9.375552 5.782644 -13.753891 0
M  V30 34 H 7.086638 4.738067 -10.106883 0
M  V30 35 H 7.269305 5.012810 -8.512006 0
M  V30 36 H 8.343002 6.425007 -7.108745 0
M  V30 37 H 9.961759 5.840420 -6.903163 0
M  V30 38 H 11.771602 6.259831 -5.653340 0
M  V30 39 H 12.234086 7.566166 -4.555854 0
M  V30 40 H 10.600123 6.966528 -4.556620 0
M  V30 41 H 9.393692 4.523305 -9.152355 0
M  V30 42 H 10.579954 6.740768 -9.138585 0
M  V30 43 H 9.049032 7.542897 -9.287751 0
M  V30 44 H 6.483329 5.076102 -15.576043 0
M  V30 45 H 7.523477 6.264149 -14.824432 0
M  V30 46 H 8.102181 5.429968 -16.255326 0
M  V30 47 H 9.423177 8.675672 -7.453509 0
M  V30 48 H 7.212525 3.911175 -17.333152 0
M  V30 49 H 8.646449 1.042851 -13.831761 0
M  V30 50 H 8.965768 2.378264 -12.773024 0
M  V30 51 H 7.338949 1.746558 -12.902587 0
M  V30 52 H 11.714079 8.853630 -8.267380 0
M  V30 53 H 13.031966 8.638282 -7.134726 0
M  V30 54 H 12.233231 7.237204 -7.790498 0
M  V30 55 H 7.731681 4.259554 -11.784658 0
M  V30 56 H 9.043940 8.072796 -5.975808 0
M  V30 57 H 7.110256 6.326713 -9.513282 0
M  V30 END ATOM
M  V30 BEGIN BOND
M  V30 1 1 3 1
M  V30 2 1 9 4
M  V30 3 1 10 9
M  V30 4 1 11 2
M  V30 5 1 11 7
M  V30 6 1 12 8
M  V30 7 1 12 11
M  V30 8 1 13 1
M  V30 9 1 15 1
M  V30 10 1 15 5
M  V30 11 2 16 15
M  V30 12 2 17 13
M  V30 13 1 18 8
M  V30 14 1 18 9
M  V30 15 1 19 6
M  V30 16 1 19 14
M  V30 17 1 19 17
M  V30 18 2 20 5
M  V30 19 1 20 13
M  V30 20 1 21 17
M  V30 21 1 22 9
M  V30 22 2 23 2
M  V30 23 1 23 6
M  V30 24 1 1 24 CFG=3
M  V30 25 1 25 2
M  V30 26 1 26 3
M  V30 27 1 27 3
M  V30 28 1 28 4
M  V30 29 1 29 4
M  V30 30 1 30 4
M  V30 31 1 31 5
M  V30 32 1 32 6
M  V30 33 1 33 6
M  V30 34 1 34 7
M  V30 35 1 35 7
M  V30 36 1 36 8
M  V30 37 1 37 8
M  V30 38 1 38 10
M  V30 39 1 39 10
M  V30 40 1 40 10
M  V30 41 1 11 41 CFG=1
M  V30 42 1 42 12
M  V30 43 1 43 12
M  V30 44 1 44 14
M  V30 45 1 45 14
M  V30 46 1 46 14
M  V30 47 1 47 18
M  V30 48 1 48 20
M  V30 49 1 49 21
M  V30 50 1 50 21
M  V30 51 1 51 21
M  V30 52 1 52 22
M  V30 53 1 53 22
M  V30 54 1 54 22
M  V30 55 1 55 23
M  V30 56 1 56 18
M  V30 57 1 57 7
M  V30 END BOND
M  V30 END CTAB
M  END
>  <i_epik_Tot_Q>  (1) 
2

>  <i_epik_Tot_abs_Q>  (1) 
2

>  <i_i_glide_confnum>  (1) 
8

>  <i_i_glide_lignum>  (1) 
43

>  <i_i_glide_posenum>  (1) 
198

>  <i_i_glide_rotatable_bonds>  (1) 
8

>  <i_lp_mmshare_version>  (1) 
72125

>  <i_m_source_file_index>  (1) 
28

>  <i_f3d_flags>  (1) 
0

>  <num_sample>  (1) 
100

>  <b_lp_Chiralities_Consistent>  (1) 
1

>  <r_epik_Charging_Adjusted_Penalty>  (1) 
0.47954930221194114

>  <r_epik_Ionization_Penalty>  (1) 
0.082650424812652987

>  <r_epik_Ionization_Penalty_Charging>  (1) 
0.068869463259337155

>  <r_epik_Ionization_Penalty_Neutral>  (1) 
0.013780961553315832

>  <r_epik_State_Penalty>  (1) 
0.41067983895260396

>  <r_glide_ring_energy>  (1) 
0

>  <r_i_docking_score>  (1) 
-5.917727979466215

>  <r_i_glide_ecoul>  (1) 
-8.1313393568866452

>  <r_i_glide_eff_state_penalty>  (1) 
0.41067983895260396

>  <r_i_glide_einternal>  (1) 
9.4716187958600049

>  <r_i_glide_emodel>  (1) 
-48.825732279866692

>  <r_i_glide_emodel_strain>  (1) 
1.7230310105601205

>  <r_i_glide_energy>  (1) 
-33.3080943305985

>  <r_i_glide_erotb>  (1) 
0.88107071462136088

>  <r_i_glide_esite>  (1) 
-0.13106298260368238

>  <r_i_glide_evdw>  (1) 
-25.176754973711855

>  <r_i_glide_gscore>  (1) 
-6.3284078184188193

>  <r_i_glide_gscore_strain>  (1) 
0

>  <r_i_glide_hbond>  (1) 
-0.19131253696790979

>  <r_i_glide_ligand_efficiency>  (1) 
-0.25729252084635718

>  <r_i_glide_ligand_efficiency_ln>  (1) 
-1.4309602844255553

>  <r_i_glide_ligand_efficiency_sa>  (1) 
-0.73170570419772574

>  <r_i_glide_lipo>  (1) 
-2.0354807191075563

>  <r_i_glide_metal>  (1) 
-0

>  <r_i_glide_rewards>  (1) 
-2.3730836421424426

>  <r_lp_Energy>  (1) 
29.109323

>  <r_lp_tautomer_probability>  (1) 
0.5

>  <s_epik_cmdline>  (1) 
J2VwaWtfcHl0aG9uJywgJy1waHQnLCAnMS4wJywgJy1waCcsICc3LjQnLCAnLXRuJywgJzgnLCAnLW1hJywgJzUwMCcsICctaW1hZScsICc8aW5maWxlLm1hZT4nLCAnLW9tYWUnLCAnPG91dGZpbGUubWFlPic=

>  <s_epik_input>  (1) 
Tz1DMVtDSF09W0NIXUMoXFtDQEhdMVtOSDJdKT1DKFtDSDNdKS9OKFtDSDNdKVtDSDJdXFtDSF09W0NIXVxbQ0BIXShbTkgyXSlbQ0gyXVtDSDJdW05IXUMoW0NIM10pKFtDSDNdKVtDSDNd

>  <s_glide_docking_method>  (1) 
confgen

>  <s_i_glide_gridfile>  (1) 
gpcr_drd2_6luq_protein_autoprepared_prepared

>  <s_lp_Force_Field>  (1) 
S-OPLS

>  <s_lp_Variant>  (1) 
DiffSBDD_27_num_sample_100-1

>  <s_m_source_file>  (1) 
generated__ligand_DiffSBDD_2026-05-06_prepared.sdf

>  <GenAI_Model>  (1) 
DiffSBDD

>  <Protein>  (1) 
generic_title2

$$$$
DiffSBDD_17_num_sample_100
     RDKit          3D

  0  0  0  0  0  0  0  0  0  0999 V3000
M  V30 BEGIN CTAB
M  V30 COUNTS 55 57 0 0 1
M  V30 BEGIN ATOM
M  V30 1 N 7.106686 5.438683 -14.652609 0
M  V30 2 C 8.452240 5.553410 -11.536604 0
M  V30 3 C 11.930422 7.649741 -3.428730 0
M  V30 4 C 10.414143 7.235221 -7.863998 0
M  V30 5 C 10.875471 8.573628 -7.874875 0
M  V30 6 C 5.032423 7.508617 -17.133509 0
M  V30 7 N 11.899891 8.841034 -4.324027 0
M  V30 8 C 5.298414 6.633608 -18.367678 0
M  V30 9 C 11.026191 7.113833 -5.508872 0
M  V30 10 F 6.951634 5.403400 -19.488486 0
M  V30 11 N 8.877260 4.806252 -10.357606 0
M  V30 12 C 7.113612 5.332003 -17.146897 0
M  V30 13 C 5.640475 6.935254 -15.866138 0
M  V30 14 C 11.434798 8.390158 -5.525605 0
M  V30 15 O 9.395859 4.969334 -14.749988 0
M  V30 16 C 7.100479 5.046461 -12.094864 0 CFG=2
M  V30 17 C 6.572288 5.955611 -15.850800 0
M  V30 18 C 6.651096 5.876653 -13.326179 0
M  V30 19 C 9.431029 5.369420 -9.214399 0
M  V30 20 C 5.998038 5.123383 -11.022148 0
M  V30 21 C 10.503022 6.492072 -6.658473 0
M  V30 22 C 11.193568 6.430372 -4.195936 0
M  V30 23 N 8.058311 4.395241 -14.747905 0
M  V30 24 C 11.392566 9.157627 -6.692006 0
M  V30 25 C 6.750322 6.145980 -18.400383 0 CFG=2
M  V30 26 C 9.847363 6.647336 -9.098193 0
M  V30 27 H 9.239303 5.487098 -12.285378 0
M  V30 28 H 8.336308 6.609222 -11.295216 0
M  V30 29 H 11.439223 7.869287 -2.479253 0
M  V30 30 H 12.969049 7.394795 -3.214632 0
M  V30 31 H 10.823842 9.154360 -8.784027 0
M  V30 32 H 3.957532 7.624681 -16.991223 0
M  V30 33 H 5.434839 8.510354 -17.279115 0
M  V30 34 H 12.679235 9.482818 -4.325929 0
M  V30 35 H 4.635046 5.769303 -18.350469 0
M  V30 36 H 5.060439 7.188110 -19.275853 0
M  V30 37 H 8.198150 5.230001 -17.127697 0
M  V30 38 H 6.695975 4.329428 -17.237395 0
M  V30 39 H 5.287193 7.355881 -14.937490 0
M  V30 40 H 9.815210 4.482193 -15.442758 0
M  V30 41 H 7.186629 3.992797 -12.360384 0
M  V30 42 H 6.918390 6.924971 -13.186938 0
M  V30 43 H 5.561823 5.849628 -13.361099 0
M  V30 44 H 9.501331 4.672896 -8.395048 0
M  V30 45 H 5.837092 6.149815 -10.691647 0
M  V30 46 H 5.048234 4.746090 -11.401891 0
M  V30 47 H 6.246861 4.526517 -10.145200 0
M  V30 48 H 10.172094 5.471161 -6.618493 0
M  V30 49 H 10.232367 6.169248 -3.755908 0
M  V30 50 H 11.834608 5.555642 -4.280012 0
M  V30 51 H 8.092503 3.868919 -13.876257 0
M  V30 52 H 11.737686 10.180919 -6.690269 0
M  V30 53 H 7.424449 6.997152 -18.488468 0
M  V30 54 H 9.768312 7.307551 -9.947409 0
M  V30 55 H 8.597714 3.836636 -10.322269 0
M  V30 END ATOM
M  V30 BEGIN BOND
M  V30 1 1 5 4
M  V30 2 1 7 3
M  V30 3 1 8 6
M  V30 4 1 11 2
M  V30 5 1 13 6
M  V30 6 1 14 7
M  V30 7 2 14 9
M  V30 8 1 16 2
M  V30 9 1 17 1
M  V30 10 1 17 12
M  V30 11 2 17 13
M  V30 12 1 18 1
M  V30 13 1 18 16
M  V30 14 1 19 11
M  V30 15 1 20 16
M  V30 16 2 21 4
M  V30 17 1 21 9
M  V30 18 1 22 3
M  V30 19 1 22 9
M  V30 20 1 23 1
M  V30 21 1 23 15
M  V30 22 2 24 5
M  V30 23 1 24 14
M  V30 24 1 25 8
M  V30 25 1 25 10
M  V30 26 1 25 12
M  V30 27 1 26 4
M  V30 28 2 26 19
M  V30 29 1 27 2
M  V30 30 1 28 2
M  V30 31 1 29 3
M  V30 32 1 30 3
M  V30 33 1 31 5
M  V30 34 1 32 6
M  V30 35 1 33 6
M  V30 36 1 34 7
M  V30 37 1 35 8
M  V30 38 1 36 8
M  V30 39 1 37 12
M  V30 40 1 38 12
M  V30 41 1 39 13
M  V30 42 1 40 15
M  V30 43 1 16 41 CFG=3
M  V30 44 1 42 18
M  V30 45 1 43 18
M  V30 46 1 44 19
M  V30 47 1 45 20
M  V30 48 1 46 20
M  V30 49 1 47 20
M  V30 50 1 48 21
M  V30 51 1 49 22
M  V30 52 1 50 22
M  V30 53 1 51 23
M  V30 54 1 52 24
M  V30 55 1 25 53 CFG=3
M  V30 56 1 54 26
M  V30 57 1 55 11
M  V30 END BOND
M  V30 END CTAB
M  END
>  <i_epik_Tot_Q>  (1) 
0

>  <i_epik_Tot_abs_Q>  (1) 
0

>  <i_i_glide_confnum>  (1) 
52

>  <i_i_glide_lignum>  (1) 
29

>  <i_i_glide_posenum>  (1) 
221

>  <i_i_glide_rotatable_bonds>  (1) 
9

>  <i_lp_mmshare_version>  (1) 
72125

>  <i_m_source_file_index>  (1) 
18

>  <i_f3d_flags>  (1) 
0

>  <num_sample>  (1) 
100

>  <b_lp_Chiralities_Consistent>  (1) 
1

>  <r_epik_Charging_Adjusted_Penalty>  (1) 
0

>  <r_epik_Ionization_Penalty>  (1) 
0.026997388265497368

>  <r_epik_Ionization_Penalty_Charging>  (1) 
0

>  <r_epik_Ionization_Penalty_Neutral>  (1) 
0.026997388265497368

>  <r_epik_State_Penalty>  (1) 
-0

>  <r_glide_ring_energy>  (1) 
0

>  <r_i_docking_score>  (1) 
-5.9167588889884133

>  <r_i_glide_ecoul>  (1) 
-0.46497349050773584

>  <r_i_glide_eff_state_penalty>  (1) 
-0

>  <r_i_glide_einternal>  (1) 
7.1456209276656502

>  <r_i_glide_emodel>  (1) 
-47.365800054938475

>  <r_i_glide_emodel_strain>  (1) 
0

>  <r_i_glide_energy>  (1) 
-36.843517108244221

>  <r_i_glide_erotb>  (1) 
0.88558064458011865

>  <r_i_glide_esite>  (1) 
0

>  <r_i_glide_evdw>  (1) 
-36.378543617736483

>  <r_i_glide_gscore>  (1) 
-5.9167588889884133

>  <r_i_glide_gscore_strain>  (1) 
0

>  <r_i_glide_hbond>  (1) 
0

>  <r_i_glide_ligand_efficiency>  (1) 
-0.22756764957647743

>  <r_i_glide_ligand_efficiency_ln>  (1) 
-1.3895314106094989

>  <r_i_glide_ligand_efficiency_sa>  (1) 
-0.67416826716702072

>  <r_i_glide_lipo>  (1) 
-2.9099314984980009

>  <r_i_glide_metal>  (1) 
-0

>  <r_i_glide_rewards>  (1) 
-2.003734830607546

>  <r_lp_Energy>  (1) 
10.435043

>  <r_lp_tautomer_probability>  (1) 
1

>  <s_epik_Chemistry_Notes>  (1) 
This compound has a N-S or N-O group and may undergo hydrolysis at high or low pH.

>  <s_epik_cmdline>  (1) 
J2VwaWtfcHl0aG9uJywgJy1waHQnLCAnMS4wJywgJy1waCcsICc3LjQnLCAnLXRuJywgJzgnLCAnLW1hJywgJzUwMCcsICctaW1hZScsICc8aW5maWxlLm1hZT4nLCAnLW9tYWUnLCAnPG91dGZpbGUubWFlPic=

>  <s_epik_input>  (1) 
RltDQEhdKFtDSDJdMSlbQ0gyXVtDSDJdW0NIXT1DMU4oW05IXVtPSF0pW0NIMl1bQ0BIXShbQ0gzXSlbQ0gyXVtOSF0vW0NIXT1bQ0hdL2MoW2NIXTIpW2NIXVtjSF1jKGMyMylbTkhdW0NIMl1bQ0gyXTM=

>  <s_glide_docking_method>  (1) 
confgen

>  <s_i_glide_gridfile>  (1) 
gpcr_drd2_6luq_protein_autoprepared_prepared

>  <s_lp_Force_Field>  (1) 
S-OPLS

>  <s_lp_Variant>  (1) 
DiffSBDD_17_num_sample_100-2

>  <s_m_source_file>  (1) 
generated__ligand_DiffSBDD_2026-05-06_prepared.sdf

>  <GenAI_Model>  (1) 
DiffSBDD

>  <Protein>  (1) 
generic_title2

$$$$
DiffSBDD_34_num_sample_100
     RDKit          3D

  0  0  0  0  0  0  0  0  0  0999 V3000
M  V30 BEGIN CTAB
M  V30 COUNTS 61 64 0 0 1
M  V30 BEGIN ATOM
M  V30 1 N 7.662689 3.582730 -16.583409 0
M  V30 2 C 6.092258 3.836167 -13.155801 0 CFG=1
M  V30 3 C 10.371964 8.175395 -9.635750 0
M  V30 4 C 11.707621 8.600151 -9.606298 0
M  V30 5 C 7.120110 1.373648 -13.739060 0
M  V30 6 C 11.518898 6.635606 -3.207654 0
M  V30 7 C 6.800506 2.500138 -12.698182 0
M  V30 8 C 7.419871 2.099293 -14.991656 0
M  V30 9 C 12.231030 9.287055 -5.878560 0
M  V30 10 N 11.834471 8.657599 -4.735727 0
M  V30 11 C 9.772136 6.535322 -11.592124 0
M  V30 12 C 10.254384 8.376742 -7.205412 0
M  V30 13 C 9.656548 8.041463 -8.426927 0
M  V30 14 C 11.586291 8.836540 -7.174955 0
M  V30 15 O 12.571482 9.051262 -3.589479 0
M  V30 16 C 6.182110 4.921791 -12.057439 0
M  V30 17 C 11.231435 7.313979 -4.571495 0
M  V30 18 C 5.923254 0.427203 -13.934647 0
M  V30 19 C 12.311446 8.931621 -8.383354 0
M  V30 20 C 8.132026 2.433765 -17.066085 0
M  V30 21 C 7.404768 5.844150 -12.278658 0 CFG=2
M  V30 22 O 8.215025 5.759920 -9.991034 0
M  V30 23 C 7.209726 3.409970 -15.299617 0
M  V30 24 O 13.076716 10.169295 -5.891677 0
M  V30 25 S 7.860065 5.709091 -14.038022 0
M  V30 26 C 9.682507 7.921935 -10.973211 0
M  V30 27 C 8.340081 0.570974 -13.264392 0
M  V30 28 C 8.612058 5.574577 -11.330803 0 CFG=2
M  V30 29 N 7.985259 1.525397 -16.105007 0 CHG=1
M  V30 30 C 6.612911 4.483487 -14.474570 0 CFG=2
M  V30 31 O 10.729281 6.209847 -12.290812 0
M  V30 32 H 5.042253 3.579151 -13.306506 0
M  V30 33 H 12.264326 8.701986 -10.525508 0
M  V30 34 H 10.879466 5.768930 -3.080267 0
M  V30 35 H 11.331146 7.269009 -2.340442 0
M  V30 36 H 12.547990 6.290890 -3.134688 0
M  V30 37 H 7.759814 2.817631 -12.293668 0
M  V30 38 H 6.235291 2.047645 -11.889792 0
M  V30 39 H 9.672410 8.319252 -6.308336 0
M  V30 40 H 8.635438 7.711360 -8.434782 0
M  V30 41 H 12.136486 8.601371 -2.882840 0
M  V30 42 H 5.287758 5.543947 -12.112547 0
M  V30 43 H 6.171631 4.486128 -11.056766 0
M  V30 44 H 10.159300 7.357418 -4.690818 0
M  V30 45 H 11.578518 6.645748 -5.361820 0
M  V30 46 H 5.684954 -0.092382 -13.005034 0
M  V30 47 H 6.134867 -0.337731 -14.682147 0
M  V30 48 H 5.025945 0.955479 -14.249708 0
M  V30 49 H 13.333358 9.277050 -8.372900 0
M  V30 50 H 8.549169 2.271259 -18.044952 0
M  V30 51 H 7.077811 6.872868 -12.118225 0
M  V30 52 H 7.760797 6.608517 -9.889276 0
M  V30 53 H 7.642071 4.457420 -17.092639 0
M  V30 54 H 10.127882 8.570097 -11.717484 0
M  V30 55 H 8.641113 8.233719 -10.901016 0
M  V30 56 H 8.128249 0.094830 -12.308329 0
M  V30 57 H 9.208434 1.209471 -13.111538 0
M  V30 58 H 8.620136 -0.205236 -13.974769 0
M  V30 59 H 8.973141 4.551945 -11.452409 0
M  V30 60 H 5.804339 4.980565 -15.013334 0
M  V30 61 H 8.256279 0.551574 -16.184082 0
M  V30 END ATOM
M  V30 BEGIN BOND
M  V30 1 1 4 3
M  V30 2 1 7 2
M  V30 3 1 7 5
M  V30 4 1 8 5
M  V30 5 1 10 9
M  V30 6 2 13 3
M  V30 7 1 13 12
M  V30 8 1 14 9
M  V30 9 2 14 12
M  V30 10 1 15 10
M  V30 11 1 16 2
M  V30 12 1 17 6
M  V30 13 1 17 10
M  V30 14 1 18 5
M  V30 15 2 19 4
M  V30 16 1 19 14
M  V30 17 1 20 1
M  V30 18 1 21 16
M  V30 19 1 23 1
M  V30 20 2 23 8
M  V30 21 2 24 9
M  V30 22 1 25 21
M  V30 23 1 26 3
M  V30 24 1 26 11
M  V30 25 1 27 5
M  V30 26 1 28 11
M  V30 27 1 28 21
M  V30 28 1 28 22
M  V30 29 1 29 8
M  V30 30 2 29 20
M  V30 31 1 30 2
M  V30 32 1 30 23
M  V30 33 1 30 25
M  V30 34 2 31 11
M  V30 35 1 2 32 CFG=3
M  V30 36 1 33 4
M  V30 37 1 34 6
M  V30 38 1 35 6
M  V30 39 1 36 6
M  V30 40 1 37 7
M  V30 41 1 38 7
M  V30 42 1 39 12
M  V30 43 1 40 13
M  V30 44 1 41 15
M  V30 45 1 42 16
M  V30 46 1 43 16
M  V30 47 1 44 17
M  V30 48 1 45 17
M  V30 49 1 46 18
M  V30 50 1 47 18
M  V30 51 1 48 18
M  V30 52 1 49 19
M  V30 53 1 50 20
M  V30 54 1 21 51 CFG=3
M  V30 55 1 52 22
M  V30 56 1 53 1
M  V30 57 1 54 26
M  V30 58 1 55 26
M  V30 59 1 56 27
M  V30 60 1 57 27
M  V30 61 1 58 27
M  V30 62 1 28 59 CFG=1
M  V30 63 1 30 60 CFG=3
M  V30 64 1 61 29
M  V30 END BOND
M  V30 END CTAB
M  END
>  <i_epik_Tot_Q>  (1) 
1

>  <i_epik_Tot_abs_Q>  (1) 
1

>  <i_i_glide_confnum>  (1) 
149

>  <i_i_glide_lignum>  (1) 
60

>  <i_i_glide_posenum>  (1) 
154

>  <i_i_glide_rotatable_bonds>  (1) 
9

>  <i_lp_mmshare_version>  (1) 
72125

>  <i_m_source_file_index>  (1) 
35

>  <i_f3d_flags>  (1) 
0

>  <num_sample>  (1) 
100

>  <b_lp_Chiralities_Consistent>  (1) 
1

>  <r_epik_Charging_Adjusted_Penalty>  (1) 
0.45828602493401616

>  <r_epik_Ionization_Penalty>  (1) 
0.57733411105264909

>  <r_epik_Ionization_Penalty_Charging>  (1) 
0

>  <r_epik_Ionization_Penalty_Neutral>  (1) 
0.57733411105264909

>  <r_epik_State_Penalty>  (1) 
0.45828602493401616

>  <r_glide_ring_energy>  (1) 
0

>  <r_i_docking_score>  (1) 
-5.9153504309020564

>  <r_i_glide_ecoul>  (1) 
-8.2480747217208954

>  <r_i_glide_eff_state_penalty>  (1) 
0.45828602493401616

>  <r_i_glide_einternal>  (1) 
11.248659704736543

>  <r_i_glide_emodel>  (1) 
-47.741554564265051

>  <r_i_glide_emodel_strain>  (1) 
1.3397474664036366

>  <r_i_glide_energy>  (1) 
-38.41051124057104

>  <r_i_glide_erotb>  (1) 
0.60717041942003669

>  <r_i_glide_esite>  (1) 
-0.012679480827540529

>  <r_i_glide_evdw>  (1) 
-30.162436518850146

>  <r_i_glide_gscore>  (1) 
-6.3736364558360723

>  <r_i_glide_gscore_strain>  (1) 
0

>  <r_i_glide_hbond>  (1) 
-0.16

>  <r_i_glide_ligand_efficiency>  (1) 
-0.19081775583555022

>  <r_i_glide_ligand_efficiency_ln>  (1) 
-1.3340928058877697

>  <r_i_glide_ligand_efficiency_sa>  (1) 
-0.59943120631454239

>  <r_i_glide_lipo>  (1) 
-2.4590217708019479

>  <r_i_glide_metal>  (1) 
-0

>  <r_i_glide_rewards>  (1) 
-1.6037725894259782

>  <r_lp_Energy>  (1) 
47.808426999999995

>  <r_lp_tautomer_probability>  (1) 
0.99990000499974985

>  <s_epik_Chemistry_Notes>  (1) 
This compound has a N-S or N-O group and may undergo hydrolysis at high or low pH.

>  <s_epik_cmdline>  (1) 
J2VwaWtfcHl0aG9uJywgJy1waHQnLCAnMS4wJywgJy1waCcsICc3LjQnLCAnLXRuJywgJzgnLCAnLW1hJywgJzUwMCcsICctaW1hZScsICc8aW5maWxlLm1hZT4nLCAnLW9tYWUnLCAnPG91dGZpbGUubWFlPic=

>  <s_epik_input>  (1) 
TjE9W0NIXU49QyhDKFtDSDJdMikoW0NIM10pW0NIM10pW0NASF0xW0NAQEhdKFtDQEBIXTIzKVNbQ0BASF0oW0NIMl0zKVtDQEhdKFtPSF0pQyg9TylbQ0gyXWM0W2NIXVtjSF1jKFtjSF1bY0hdNClDKD1PKU4oW09IXSlbQ0gyXVtDSDNd

>  <s_glide_docking_method>  (1) 
confgen

>  <s_i_glide_gridfile>  (1) 
gpcr_drd2_6luq_protein_autoprepared_prepared

>  <s_lp_Force_Field>  (1) 
S-OPLS

>  <s_lp_Variant>  (1) 
DiffSBDD_34_num_sample_100-1

>  <s_m_source_file>  (1) 
generated__ligand_DiffSBDD_2026-05-06_prepared.sdf

>  <GenAI_Model>  (1) 
DiffSBDD

>  <Protein>  (1) 
generic_title2

$$$$
DiffSBDD_34_num_sample_100
     RDKit          3D

  0  0  0  0  0  0  0  0  0  0999 V3000
M  V30 BEGIN CTAB
M  V30 COUNTS 60 63 0 0 1
M  V30 BEGIN ATOM
M  V30 1 N 7.509644 4.520078 -16.262693 0
M  V30 2 C 6.071489 4.532928 -12.721219 0 CFG=1
M  V30 3 C 10.961452 7.291348 -8.062122 0
M  V30 4 C 11.262343 8.658842 -8.053115 0
M  V30 5 C 6.909374 2.088303 -13.449093 0
M  V30 6 C 11.636535 6.530951 -2.174959 0
M  V30 7 C 6.748920 3.171489 -12.327896 0
M  V30 8 C 7.205998 2.852841 -14.689971 0
M  V30 9 C 11.429113 9.403877 -4.326281 0
M  V30 10 N 11.914067 8.762561 -3.228158 0
M  V30 11 C 9.641393 6.969099 -10.306274 0
M  V30 12 C 11.034550 7.249343 -5.628699 0
M  V30 13 C 10.852984 6.584731 -6.850986 0
M  V30 14 C 11.325427 8.633321 -5.615342 0
M  V30 15 O 11.918659 9.540081 -2.061094 0
M  V30 16 C 6.143928 5.557521 -11.581074 0
M  V30 17 C 12.530625 7.453694 -3.019080 0
M  V30 18 C 5.604228 1.274999 -13.534957 0
M  V30 19 C 11.434851 9.329670 -6.833239 0
M  V30 20 C 7.797899 3.302549 -16.718389 0
M  V30 21 C 7.488717 6.327775 -11.645521 0 CFG=2
M  V30 22 O 8.065118 5.369298 -9.441153 0
M  V30 23 C 7.122026 4.201751 -14.928607 0
M  V30 24 O 11.034840 10.569299 -4.291658 0
M  V30 25 S 8.101188 6.169301 -13.348801 0
M  V30 26 C 10.775226 6.569302 -9.365315 0
M  V30 27 C 8.058421 1.118644 -13.122274 0
M  V30 28 C 8.600019 5.877777 -10.649077 0 CFG=2
M  V30 29 N 7.638504 2.310641 -15.865593 0
M  V30 30 C 6.683285 5.236918 -13.956520 0 CFG=2
M  V30 31 O 9.573906 8.102962 -10.781493 0
M  V30 32 H 5.027408 4.307566 -12.938864 0
M  V30 33 H 11.349408 9.200795 -8.984775 0
M  V30 34 H 12.234954 5.769359 -1.675887 0
M  V30 35 H 10.883747 6.012236 -2.762994 0
M  V30 36 H 11.098888 7.093142 -1.413702 0
M  V30 37 H 7.743328 3.409520 -11.948973 0
M  V30 38 H 6.200227 2.752001 -11.491635 0
M  V30 39 H 10.912507 6.706048 -4.715290 0
M  V30 40 H 10.618463 5.531942 -6.860899 0
M  V30 41 H 11.600799 10.378233 -2.370309 0
M  V30 42 H 5.343330 6.282855 -11.733229 0
M  V30 43 H 5.927877 5.103179 -10.614251 0
M  V30 44 H 12.900134 6.969319 -3.907562 0
M  V30 45 H 13.434813 7.651903 -2.445387 0
M  V30 46 H 5.506866 0.590399 -12.691612 0
M  V30 47 H 5.556812 0.673170 -14.442782 0
M  V30 48 H 4.728732 1.918614 -13.491674 0
M  V30 49 H 11.645552 10.388352 -6.828535 0
M  V30 50 H 8.140461 3.138144 -17.729835 0
M  V30 51 H 7.255907 7.382340 -11.491679 0
M  V30 52 H 7.517767 6.068182 -9.089236 0
M  V30 53 H 7.809380 1.332146 -16.046474 0
M  V30 54 H 10.634837 5.517139 -9.117288 0
M  V30 55 H 11.713924 6.704397 -9.891778 0
M  V30 56 H 7.834853 0.545158 -12.226161 0
M  V30 57 H 9.001470 1.643845 -12.966155 0
M  V30 58 H 8.215477 0.396414 -13.923441 0
M  V30 59 H 9.149683 5.051751 -11.101335 0
M  V30 60 H 5.967577 5.932152 -14.397608 0
M  V30 END ATOM
M  V30 BEGIN BOND
M  V30 1 1 4 3
M  V30 2 1 7 2
M  V30 3 1 7 5
M  V30 4 1 8 5
M  V30 5 1 10 9
M  V30 6 2 13 3
M  V30 7 1 13 12
M  V30 8 1 14 9
M  V30 9 2 14 12
M  V30 10 1 15 10
M  V30 11 1 16 2
M  V30 12 1 17 6
M  V30 13 1 17 10
M  V30 14 1 18 5
M  V30 15 2 19 4
M  V30 16 1 19 14
M  V30 17 2 20 1
M  V30 18 1 21 16
M  V30 19 1 23 1
M  V30 20 2 23 8
M  V30 21 2 24 9
M  V30 22 1 25 21
M  V30 23 1 26 3
M  V30 24 1 26 11
M  V30 25 1 27 5
M  V30 26 1 28 11
M  V30 27 1 28 21
M  V30 28 1 28 22
M  V30 29 1 29 8
M  V30 30 1 29 20
M  V30 31 1 30 2
M  V30 32 1 30 23
M  V30 33 1 30 25
M  V30 34 2 31 11
M  V30 35 1 2 32 CFG=3
M  V30 36 1 33 4
M  V30 37 1 34 6
M  V30 38 1 35 6
M  V30 39 1 36 6
M  V30 40 1 37 7
M  V30 41 1 38 7
M  V30 42 1 39 12
M  V30 43 1 40 13
M  V30 44 1 41 15
M  V30 45 1 42 16
M  V30 46 1 43 16
M  V30 47 1 44 17
M  V30 48 1 45 17
M  V30 49 1 46 18
M  V30 50 1 47 18
M  V30 51 1 48 18
M  V30 52 1 49 19
M  V30 53 1 50 20
M  V30 54 1 21 51 CFG=1
M  V30 55 1 52 22
M  V30 56 1 53 29
M  V30 57 1 54 26
M  V30 58 1 55 26
M  V30 59 1 56 27
M  V30 60 1 57 27
M  V30 61 1 58 27
M  V30 62 1 28 59 CFG=3
M  V30 63 1 30 60 CFG=3
M  V30 END BOND
M  V30 END CTAB
M  END
>  <i_epik_Tot_Q>  (1) 
0

>  <i_epik_Tot_abs_Q>  (1) 
0

>  <i_i_glide_confnum>  (1) 
34

>  <i_i_glide_lignum>  (1) 
62

>  <i_i_glide_posenum>  (1) 
266

>  <i_i_glide_rotatable_bonds>  (1) 
9

>  <i_lp_mmshare_version>  (1) 
72125

>  <i_m_source_file_index>  (1) 
35

>  <i_f3d_flags>  (1) 
0

>  <num_sample>  (1) 
100

>  <b_lp_Chiralities_Consistent>  (1) 
1

>  <r_epik_Charging_Adjusted_Penalty>  (1) 
1.8315475384043096

>  <r_epik_Ionization_Penalty>  (1) 
0.90357436971334326

>  <r_epik_Ionization_Penalty_Charging>  (1) 
0.88195505593321366

>  <r_epik_Ionization_Penalty_Neutral>  (1) 
0.021619313780129622

>  <r_epik_State_Penalty>  (1) 
0.94959248247109596

>  <r_glide_ring_energy>  (1) 
0

>  <r_i_docking_score>  (1) 
-5.9099114043651708

>  <r_i_glide_ecoul>  (1) 
-3.4168906724934427

>  <r_i_glide_eff_state_penalty>  (1) 
0.94959248247109596

>  <r_i_glide_einternal>  (1) 
23.292465347741285

>  <r_i_glide_emodel>  (1) 
-43.293282938413284

>  <r_i_glide_emodel_strain>  (1) 
1.6946516582867872

>  <r_i_glide_energy>  (1) 
-39.283701352203636

>  <r_i_glide_erotb>  (1) 
0.6096786253841594

>  <r_i_glide_esite>  (1) 
-0.097218925176285179

>  <r_i_glide_evdw>  (1) 
-35.866810679710191

>  <r_i_glide_gscore>  (1) 
-6.8595038868362668

>  <r_i_glide_gscore_strain>  (1) 
0

>  <r_i_glide_hbond>  (1) 
-0.14266762274373759

>  <r_i_glide_ligand_efficiency>  (1) 
-0.19064230336661842

>  <r_i_glide_ligand_efficiency_ln>  (1) 
-1.3328661387175569

>  <r_i_glide_ligand_efficiency_sa>  (1) 
-0.59888004332322575

>  <r_i_glide_lipo>  (1) 
-3.1155565246020336

>  <r_i_glide_metal>  (1) 
-0

>  <r_i_glide_rewards>  (1) 
-1.8078653048388422

>  <r_lp_Energy>  (1) 
38.656515999999996

>  <r_lp_tautomer_probability>  (1) 
0.49995000249987359

>  <s_epik_Chemistry_Notes>  (1) 
This compound has a N-S or N-O group and may undergo hydrolysis at high or low pH.

>  <s_epik_cmdline>  (1) 
J2VwaWtfcHl0aG9uJywgJy1waHQnLCAnMS4wJywgJy1waCcsICc3LjQnLCAnLXRuJywgJzgnLCAnLW1hJywgJzUwMCcsICctaW1hZScsICc8aW5maWxlLm1hZT4nLCAnLW9tYWUnLCAnPG91dGZpbGUubWFlPic=

>  <s_epik_input>  (1) 
TjE9W0NIXU49QyhDKFtDSDJdMikoW0NIM10pW0NIM10pW0NASF0xW0NAQEhdKFtDQEBIXTIzKVNbQ0BASF0oW0NIMl0zKVtDQEhdKFtPSF0pQyg9TylbQ0gyXWM0W2NIXVtjSF1jKFtjSF1bY0hdNClDKD1PKU4oW09IXSlbQ0gyXVtDSDNd

>  <s_glide_docking_method>  (1) 
confgen

>  <s_i_glide_gridfile>  (1) 
gpcr_drd2_6luq_protein_autoprepared_prepared

>  <s_lp_Force_Field>  (1) 
S-OPLS

>  <s_lp_Variant>  (1) 
DiffSBDD_34_num_sample_100-3

>  <s_m_source_file>  (1) 
generated__ligand_DiffSBDD_2026-05-06_prepared.sdf

>  <GenAI_Model>  (1) 
DiffSBDD

>  <Protein>  (1) 
generic_title2

$$$$
DiffSBDD_38_num_sample_100
     RDKit          3D

  0  0  0  0  0  0  0  0  0  0999 V3000
M  V30 BEGIN CTAB
M  V30 COUNTS 50 52 0 0 1
M  V30 BEGIN ATOM
M  V30 1 C 8.370082 4.032283 -11.218671 0
M  V30 2 S 9.507302 7.769299 -11.669596 0
M  V30 3 C 10.576995 8.068920 -6.907507 0
M  V30 4 C 11.489057 7.350428 -7.924999 0
M  V30 5 N 7.522191 0.975540 -13.091705 0 CHG=1
M  V30 6 C 12.183791 7.827079 -3.481755 0
M  V30 7 C 7.064164 3.457296 -13.392657 0
M  V30 8 O 11.068319 6.169313 -4.850701 0
M  V30 9 C 12.381852 9.369288 -3.840903 0
M  V30 10 C 6.545551 2.077294 -12.933271 0
M  V30 11 C 8.742902 5.447082 -10.995470 0
M  V30 12 C 9.751497 7.355964 -9.875629 0 CFG=1
M  V30 13 N 11.250069 8.280918 -5.611228 0
M  V30 14 C 9.373552 5.911707 -9.930628 0
M  V30 15 C 8.428883 6.344294 -12.102153 0 CFG=2
M  V30 16 C 11.739452 9.435157 -5.231648 0
M  V30 17 C 8.813838 5.397443 -13.251966 0 CFG=2
M  V30 18 O 11.705609 10.471759 -5.891662 0
M  V30 19 O 8.234820 5.769302 -14.487267 0
M  V30 20 C 8.398385 3.956952 -12.770948 0 CFG=1
M  V30 21 C 11.434837 7.331534 -4.725973 0
M  V30 22 C 7.834675 0.614007 -14.488608 0
M  V30 23 C 11.186858 7.651335 -9.408042 0
M  V30 24 H 7.371341 3.878000 -10.809690 0
M  V30 25 H 9.096489 3.369318 -10.751082 0
M  V30 26 H 10.243506 9.017472 -7.323941 0
M  V30 27 H 9.660763 7.492528 -6.762380 0
M  V30 28 H 11.434823 6.276660 -7.744344 0
M  V30 29 H 12.525923 7.636535 -7.743462 0
M  V30 30 H 8.375255 1.209839 -12.598959 0
M  V30 31 H 11.594886 7.678944 -2.576307 0
M  V30 32 H 13.138543 7.313983 -3.373826 0
M  V30 33 H 6.286680 4.194778 -13.186911 0
M  V30 34 H 7.159237 3.436397 -14.478490 0
M  V30 35 H 11.849498 10.015125 -3.141787 0
M  V30 36 H 13.432037 9.659546 -3.880067 0
M  V30 37 H 6.234828 2.122258 -11.891691 0
M  V30 38 H 5.641467 1.827042 -13.490947 0
M  V30 39 H 9.034866 7.902675 -9.266910 0
M  V30 40 H 9.642038 5.271459 -9.103157 0
M  V30 41 H 7.368060 6.597376 -12.077916 0
M  V30 42 H 9.898665 5.425012 -13.373364 0
M  V30 43 H 8.667053 5.292375 -15.179075 0
M  V30 44 H 9.188184 3.269441 -13.071707 0
M  V30 45 H 8.480855 -0.263798 -14.506331 0
M  V30 46 H 6.925785 0.372617 -15.041397 0
M  V30 47 H 8.350629 1.425167 -15.002455 0
M  V30 48 H 11.892320 7.105659 -10.033999 0
M  V30 49 H 11.392720 8.707271 -9.589474 0
M  V30 50 H 7.123946 0.154552 -12.656759 0
M  V30 END ATOM
M  V30 BEGIN BOND
M  V30 1 1 4 3
M  V30 2 1 9 6
M  V30 3 1 10 5
M  V30 4 1 10 7
M  V30 5 1 11 1
M  V30 6 1 12 2
M  V30 7 1 13 3
M  V30 8 2 14 11
M  V30 9 1 14 12
M  V30 10 1 15 2
M  V30 11 1 15 11
M  V30 12 1 16 9
M  V30 13 1 16 13
M  V30 14 1 17 15
M  V30 15 2 18 16
M  V30 16 1 19 17
M  V30 17 1 20 1
M  V30 18 1 20 7
M  V30 19 1 20 17
M  V30 20 1 21 6
M  V30 21 2 21 8
M  V30 22 1 21 13
M  V30 23 1 22 5
M  V30 24 1 23 4
M  V30 25 1 23 12
M  V30 26 1 24 1
M  V30 27 1 25 1
M  V30 28 1 26 3
M  V30 29 1 27 3
M  V30 30 1 28 4
M  V30 31 1 29 4
M  V30 32 1 30 5
M  V30 33 1 31 6
M  V30 34 1 32 6
M  V30 35 1 33 7
M  V30 36 1 34 7
M  V30 37 1 35 9
M  V30 38 1 36 9
M  V30 39 1 37 10
M  V30 40 1 38 10
M  V30 41 1 12 39 CFG=1
M  V30 42 1 40 14
M  V30 43 1 15 41 CFG=3
M  V30 44 1 17 42 CFG=3
M  V30 45 1 43 19
M  V30 46 1 20 44 CFG=1
M  V30 47 1 45 22
M  V30 48 1 46 22
M  V30 49 1 47 22
M  V30 50 1 48 23
M  V30 51 1 49 23
M  V30 52 1 50 5
M  V30 END BOND
M  V30 END CTAB
M  END
>  <i_epik_Tot_Q>  (1) 
1

>  <i_epik_Tot_abs_Q>  (1) 
1

>  <i_i_glide_confnum>  (1) 
143

>  <i_i_glide_lignum>  (1) 
68

>  <i_i_glide_posenum>  (1) 
39

>  <i_i_glide_rotatable_bonds>  (1) 
8

>  <i_lp_mmshare_version>  (1) 
72125

>  <i_m_source_file_index>  (1) 
39

>  <i_f3d_flags>  (1) 
0

>  <num_sample>  (1) 
100

>  <b_lp_Chiralities_Consistent>  (1) 
1

>  <r_epik_Charging_Adjusted_Penalty>  (1) 
0.00073389509714513615

>  <r_epik_Ionization_Penalty>  (1) 
0.00073402386584221085

>  <r_epik_Ionization_Penalty_Charging>  (1) 
0.00073389509714513615

>  <r_epik_Ionization_Penalty_Neutral>  (1) 
1.2876869707468429e-07

>  <r_epik_State_Penalty>  (1) 
-0

>  <r_glide_ring_energy>  (1) 
0

>  <r_i_docking_score>  (1) 
-5.8985139190857812

>  <r_i_glide_ecoul>  (1) 
-1.9634627996717549

>  <r_i_glide_eff_state_penalty>  (1) 
-0

>  <r_i_glide_einternal>  (1) 
15.03712143473137

>  <r_i_glide_emodel>  (1) 
-42.515521151473756

>  <r_i_glide_emodel_strain>  (1) 
0.56430439147544575

>  <r_i_glide_energy>  (1) 
-35.143419155921436

>  <r_i_glide_erotb>  (1) 
0.82107344862339093

>  <r_i_glide_esite>  (1) 
0

>  <r_i_glide_evdw>  (1) 
-33.179956356249683

>  <r_i_glide_gscore>  (1) 
-5.8985139190857812

>  <r_i_glide_gscore_strain>  (1) 
0

>  <r_i_glide_hbond>  (1) 
0

>  <r_i_glide_ligand_efficiency>  (1) 
-0.25645712691677308

>  <r_i_glide_ligand_efficiency_ln>  (1) 
-1.4263141504020993

>  <r_i_glide_ligand_efficiency_sa>  (1) 
-0.72932995498621311

>  <r_i_glide_lipo>  (1) 
-1.8917148084553683

>  <r_i_glide_metal>  (1) 
-0

>  <r_i_glide_rewards>  (1) 
-2.8743553214905564

>  <r_lp_Energy>  (1) 
9.7708929999999992

>  <r_lp_tautomer_probability>  (1) 
1

>  <s_epik_cmdline>  (1) 
J2VwaWtfcHl0aG9uJywgJy1waHQnLCAnMS4wJywgJy1waCcsICc3LjQnLCAnLXRuJywgJzgnLCAnLW1hJywgJzUwMCcsICctaW1hZScsICc8aW5maWxlLm1hZT4nLCAnLW9tYWUnLCAnPG91dGZpbGUubWFlPic=

>  <s_epik_input>  (1) 
W0NIM11bTkhdW0NIMl1bQ0gyXVtDQEhdKFtDSDJdMSlbQ0BASF0oW09IXSlbQ0BASF0oQzE9MilTW0NAQEhdKFtDSF0yKVtDSDJdW0NIMl1bQ0gyXU4zQyg9TylbQ0gyXVtDSDJdQzM9Tw==

>  <s_glide_docking_method>  (1) 
confgen

>  <s_i_glide_gridfile>  (1) 
gpcr_drd2_6luq_protein_autoprepared_prepared

>  <s_lp_Force_Field>  (1) 
S-OPLS

>  <s_lp_Variant>  (1) 
DiffSBDD_38_num_sample_100-1

>  <s_m_source_file>  (1) 
generated__ligand_DiffSBDD_2026-05-06_prepared.sdf

>  <GenAI_Model>  (1) 
DiffSBDD

>  <Protein>  (1) 
generic_title2

$$$$
DiffSBDD_76_num_sample_100
     RDKit          3D

  0  0  0  0  0  0  0  0  0  0999 V3000
M  V30 BEGIN CTAB
M  V30 COUNTS 78 81 0 0 1
M  V30 BEGIN ATOM
M  V30 1 C 9.470802 6.127052 -11.758984 0
M  V30 2 C 11.396573 8.281404 -7.530875 0
M  V30 3 C 6.732340 4.648101 -12.233974 0
M  V30 4 N 8.465071 5.777440 -10.725432 0 CFG=1 CHG=1
M  V30 5 C 11.820325 8.569020 -6.200998 0
M  V30 6 C 8.372989 2.992768 -18.096643 0
M  V30 7 C 7.124535 2.767327 -18.523485 0
M  V30 8 C 6.419724 -0.189145 -16.313490 0 CFG=1
M  V30 9 C 10.502511 7.733087 -10.106034 0
M  V30 10 N 7.305915 1.465607 -14.489951 0 CFG=2 CHG=1
M  V30 11 C 7.851948 0.599467 -13.425866 0
M  V30 12 C 10.039752 6.916442 -9.063187 0
M  V30 13 C 6.428439 1.420196 -18.399065 0
M  V30 14 C 10.108364 6.365627 -6.671207 0
M  V30 15 C 11.417503 8.749546 -9.808808 0
M  V30 16 C 4.947395 0.569351 -14.284994 0
M  V30 17 C 10.016895 7.529636 -11.521629 0
M  V30 18 C 7.286607 2.913404 -14.100587 0
M  V30 19 N 11.834402 9.027967 -8.569499 0
M  V30 20 O 8.634439 -0.230710 -14.226767 0
M  V30 21 O 12.551609 8.945361 -3.334591 0
M  V30 22 C 7.203567 0.342355 -17.563416 0 CFG=1
M  V30 23 C 11.434822 7.709199 -5.120538 0
M  V30 24 C 6.363160 3.303494 -12.911238 0
M  V30 25 N 5.470422 -2.217975 -17.492242 0 CHG=1
M  V30 26 C 6.115940 0.933843 -15.241440 0 CFG=2
M  V30 27 O 12.634768 9.654455 -5.974850 0 CHG=-1
M  V30 28 C 7.752649 4.517966 -11.070515 0
M  V30 29 C 10.508430 7.177615 -7.744870 0
M  V30 30 C 9.057687 5.761975 -9.352763 0
M  V30 31 C 5.149907 -0.980567 -16.756408 0
M  V30 32 C 9.151555 1.956867 -17.470697 0
M  V30 33 C 8.638997 0.740600 -17.225608 0
M  V30 34 C 11.948028 7.938894 -3.704869 0
M  V30 35 C 10.586413 6.610521 -5.377323 0
M  V30 36 C 11.690421 6.802935 -2.707151 0
M  V30 37 H 10.269447 5.388113 -11.747927 0
M  V30 38 H 9.051230 6.095713 -12.762025 0
M  V30 39 H 7.064925 5.340102 -13.005529 0
M  V30 40 H 5.826922 5.098607 -11.824166 0
M  V30 41 H 8.807844 3.973586 -18.229664 0
M  V30 42 H 6.565745 3.563562 -18.993605 0
M  V30 43 H 7.029574 -0.956077 -15.846963 0
M  V30 44 H 7.108534 0.053824 -12.846593 0
M  V30 45 H 8.506549 1.139157 -12.739282 0
M  V30 46 H 6.277868 1.048003 -19.413034 0
M  V30 47 H 5.432923 1.601079 -18.005443 0
M  V30 48 H 9.445388 5.533179 -6.838518 0
M  V30 49 H 11.817066 9.371698 -10.590438 0
M  V30 50 H 3.994025 0.510463 -14.811127 0
M  V30 51 H 5.116188 -0.383009 -13.791767 0
M  V30 52 H 4.790075 1.291771 -13.491980 0
M  V30 53 H 9.228337 8.262451 -11.698157 0
M  V30 54 H 10.802749 7.767473 -12.232136 0
M  V30 55 H 8.310788 3.182953 -13.842809 0
M  V30 56 H 7.045352 3.523841 -14.971267 0
M  V30 57 H 8.401622 -1.137671 -14.067655 0
M  V30 58 H 7.350634 -0.503577 -18.233870 0
M  V30 59 H 5.349589 3.400118 -13.298882 0
M  V30 60 H 6.322490 2.524823 -12.148365 0
M  V30 61 H 4.619296 -2.729737 -17.680938 0
M  V30 62 H 5.927360 -1.995618 -18.364484 0
M  V30 63 H 5.834898 1.769295 -15.859632 0
M  V30 64 H 7.217342 4.168618 -10.186691 0
M  V30 65 H 8.505303 3.766299 -11.308587 0
M  V30 66 H 8.230413 5.797293 -8.642572 0
M  V30 67 H 9.592186 4.822630 -9.195024 0
M  V30 68 H 4.580586 -1.334217 -15.900160 0
M  V30 69 H 4.470919 -0.365858 -17.346960 0
M  V30 70 H 10.176046 2.163168 -17.193847 0
M  V30 71 H 9.255402 -0.015195 -16.760656 0
M  V30 72 H 10.285401 5.957611 -4.574977 0
M  V30 73 H 10.634691 6.568276 -2.582630 0
M  V30 74 H 12.197064 5.898311 -3.043394 0
M  V30 75 H 12.094135 7.071175 -1.730908 0
M  V30 76 H 6.075638 -2.800316 -16.929221 0
M  V30 77 H 7.784046 6.531383 -10.672751 0
M  V30 78 H 8.035334 1.443759 -15.189506 0
M  V30 END ATOM
M  V30 BEGIN BOND
M  V30 1 1 4 1
M  V30 2 2 5 2
M  V30 3 2 7 6
M  V30 4 1 11 10
M  V30 5 2 12 9
M  V30 6 1 13 7
M  V30 7 1 15 9
M  V30 8 1 17 1
M  V30 9 1 17 9
M  V30 10 1 18 10
M  V30 11 1 19 2
M  V30 12 2 19 15
M  V30 13 1 20 11
M  V30 14 1 22 8
M  V30 15 1 22 13
M  V30 16 1 23 5
M  V30 17 1 24 3
M  V30 18 1 24 18
M  V30 19 1 26 8
M  V30 20 1 26 10
M  V30 21 1 26 16
M  V30 22 1 27 5
M  V30 23 1 28 3
M  V30 24 1 28 4
M  V30 25 1 29 2
M  V30 26 1 29 12
M  V30 27 2 29 14
M  V30 28 1 30 4
M  V30 29 1 30 12
M  V30 30 1 31 8
M  V30 31 1 31 25
M  V30 32 1 32 6
M  V30 33 1 33 22
M  V30 34 2 33 32
M  V30 35 2 34 21
M  V30 36 1 34 23
M  V30 37 1 35 14
M  V30 38 2 35 23
M  V30 39 1 36 34
M  V30 40 1 37 1
M  V30 41 1 38 1
M  V30 42 1 39 3
M  V30 43 1 40 3
M  V30 44 1 41 6
M  V30 45 1 42 7
M  V30 46 1 8 43 CFG=1
M  V30 47 1 44 11
M  V30 48 1 45 11
M  V30 49 1 46 13
M  V30 50 1 47 13
M  V30 51 1 48 14
M  V30 52 1 49 15
M  V30 53 1 50 16
M  V30 54 1 51 16
M  V30 55 1 52 16
M  V30 56 1 53 17
M  V30 57 1 54 17
M  V30 58 1 55 18
M  V30 59 1 56 18
M  V30 60 1 57 20
M  V30 61 1 22 58 CFG=3
M  V30 62 1 59 24
M  V30 63 1 60 24
M  V30 64 1 61 25
M  V30 65 1 62 25
M  V30 66 1 26 63 CFG=3
M  V30 67 1 64 28
M  V30 68 1 65 28
M  V30 69 1 66 30
M  V30 70 1 67 30
M  V30 71 1 68 31
M  V30 72 1 69 31
M  V30 73 1 70 32
M  V30 74 1 71 33
M  V30 75 1 72 35
M  V30 76 1 73 36
M  V30 77 1 74 36
M  V30 78 1 75 36
M  V30 79 1 76 25
M  V30 80 1 4 77 CFG=1
M  V30 81 1 10 78 CFG=3
M  V30 END BOND
M  V30 END CTAB
M  END
>  <i_epik_Tot_Q>  (1) 
2

>  <i_epik_Tot_abs_Q>  (1) 
4

>  <i_i_glide_confnum>  (1) 
176

>  <i_i_glide_lignum>  (1) 
156

>  <i_i_glide_posenum>  (1) 
334

>  <i_i_glide_rotatable_bonds>  (1) 
12

>  <i_lp_mmshare_version>  (1) 
72125

>  <i_m_source_file_index>  (1) 
77

>  <i_f3d_flags>  (1) 
0

>  <num_sample>  (1) 
100

>  <b_lp_Chiralities_Consistent>  (1) 
1

>  <r_epik_Charging_Adjusted_Penalty>  (1) 
2.7385366295040585

>  <r_epik_Ionization_Penalty>  (1) 
1.4403839023663505

>  <r_epik_Ionization_Penalty_Charging>  (1) 
1.4088334024277234

>  <r_epik_Ionization_Penalty_Neutral>  (1) 
0.03155049993862722

>  <r_epik_State_Penalty>  (1) 
1.3297032270763354

>  <r_glide_ring_energy>  (1) 
0.68305203791256597

>  <r_i_docking_score>  (1) 
-5.8975290825169004

>  <r_i_glide_ecoul>  (1) 
-11.820479564898372

>  <r_i_glide_eff_state_penalty>  (1) 
1.3297032270763354

>  <r_i_glide_einternal>  (1) 
12.978480849185139

>  <r_i_glide_emodel>  (1) 
-64.912381303589498

>  <r_i_glide_emodel_strain>  (1) 
0.27019515700042973

>  <r_i_glide_energy>  (1) 
-40.87047821393751

>  <r_i_glide_erotb>  (1) 
0.66625950385389887

>  <r_i_glide_esite>  (1) 
-0.10753324520792798

>  <r_i_glide_evdw>  (1) 
-29.049998649039136

>  <r_i_glide_gscore>  (1) 
-7.2272323095932363

>  <r_i_glide_gscore_strain>  (1) 
0

>  <r_i_glide_hbond>  (1) 
-0.36239032464464488

>  <r_i_glide_ligand_efficiency>  (1) 
-0.16382025229213612

>  <r_i_glide_ligand_efficiency_ln>  (1) 
-1.2866815129825546

>  <r_i_glide_ligand_efficiency_sa>  (1) 
-0.54092255496419683

>  <r_i_glide_lipo>  (1) 
-2.5430167173393774

>  <r_i_glide_metal>  (1) 
-0

>  <r_i_glide_rewards>  (1) 
-1.6549796590684733

>  <r_lp_Energy>  (1) 
77.340654000000001

>  <r_lp_tautomer_probability>  (1) 
0.99995000000000001

>  <s_epik_Chemistry_Notes>  (1) 
This compound contains an acetal/aminal-like group ( X-CH(R)-Y where X, Y are N, S, or O) that may be acid/base labile, releasing an aldehyde.

>  <s_epik_cmdline>  (1) 
J2VwaWtfcHl0aG9uJywgJy1waHQnLCAnMS4wJywgJy1waCcsICc3LjQnLCAnLXRuJywgJzgnLCAnLW1hJywgJzUwMCcsICctaW1hZScsICc8aW5maWxlLm1hZT4nLCAnLW9tYWUnLCAnPG91dGZpbGUubWFlPic=

>  <s_epik_input>  (1) 
Tz1DKFtDSDNdKWMoYzFbT0hdKVtjSF1bY0hdYyhjMTIpYzNjKFtjSF1uMilbQ0gyXVtDSDJdTihbQ0gyXTMpW0NIMl1bQ0gyXVtDSDJdW0NIMl1OKFtDSDJdW09IXSlbQ0BIXShbQ0gzXSlbQ0BASF0oW0NIMl1bTkgyXSlbQ0BIXTRbQ0gyXVtDSF09W0NIXVtDSF09W0NIXTQ=

>  <s_glide_docking_method>  (1) 
confgen

>  <s_i_glide_gridfile>  (1) 
gpcr_drd2_6luq_protein_autoprepared_prepared

>  <s_lp_Force_Field>  (1) 
S-OPLS

>  <s_lp_Variant>  (1) 
DiffSBDD_76_num_sample_100-5

>  <s_m_source_file>  (1) 
generated__ligand_DiffSBDD_2026-05-06_prepared.sdf

>  <GenAI_Model>  (1) 
DiffSBDD

>  <Protein>  (1) 
generic_title2

$$$$
DiffSBDD_17_num_sample_100
     RDKit          3D

  0  0  0  0  0  0  0  0  0  0999 V3000
M  V30 BEGIN CTAB
M  V30 COUNTS 55 57 0 0 1
M  V30 BEGIN ATOM
M  V30 1 N 7.476256 4.332919 -14.006650 0
M  V30 2 C 8.681259 5.964855 -11.322934 0
M  V30 3 C 12.268256 8.447487 -2.659741 0
M  V30 4 C 10.683881 7.091622 -6.866229 0
M  V30 5 C 10.695283 8.505631 -7.056815 0
M  V30 6 C 7.531105 0.861383 -15.670570 0
M  V30 7 N 11.834882 9.464974 -3.659528 0
M  V30 8 C 6.365737 0.261689 -14.865096 0
M  V30 9 C 11.434835 7.441162 -4.583925 0
M  V30 10 F 5.434868 0.169289 -12.704644 0
M  V30 11 N 9.434839 5.627093 -10.128483 0
M  V30 12 C 6.317490 2.249288 -13.299107 0
M  V30 13 C 7.778423 2.328158 -15.350520 0
M  V30 14 C 11.447407 8.767119 -4.762718 0
M  V30 15 O 7.466675 5.769275 -15.829151 0
M  V30 16 C 7.594603 4.893132 -11.558928 0 CFG=2
M  V30 17 C 7.237945 2.969387 -14.286973 0
M  V30 18 C 6.848167 5.057387 -12.900196 0
M  V30 19 C 9.799328 6.523955 -9.141985 0
M  V30 20 C 6.577113 4.859773 -10.406469 0
M  V30 21 C 11.065722 6.569299 -5.608289 0
M  V30 22 C 11.840018 6.992288 -3.218820 0
M  V30 23 N 8.310273 5.043253 -14.887895 0
M  V30 24 C 11.091833 9.350891 -5.988995 0
M  V30 25 C 6.421738 0.721390 -13.405538 0 CFG=2
M  V30 26 C 10.282068 6.160555 -7.941215 0
M  V30 27 H 9.367273 6.004486 -12.169337 0
M  V30 28 H 8.229760 6.952910 -11.220063 0
M  V30 29 H 11.824294 8.647568 -1.684097 0
M  V30 30 H 13.350974 8.509629 -2.547188 0
M  V30 31 H 10.410661 8.933627 -8.004420 0
M  V30 32 H 7.335436 0.752985 -16.737508 0
M  V30 33 H 8.447440 0.310474 -15.459282 0
M  V30 34 H 12.387502 10.296787 -3.793217 0
M  V30 35 H 5.416231 0.569318 -15.304952 0
M  V30 36 H 6.389521 -0.826374 -14.922939 0
M  V30 37 H 6.532394 2.524329 -12.274459 0
M  V30 38 H 5.290625 2.556472 -13.491657 0
M  V30 39 H 8.427680 2.859740 -16.028825 0
M  V30 40 H 7.896947 5.578525 -16.649240 0
M  V30 41 H 8.097369 3.925013 -11.564248 0
M  V30 42 H 6.779093 6.116847 -13.149729 0
M  V30 43 H 5.812830 4.730034 -12.809391 0
M  V30 44 H 9.655258 7.556849 -9.420711 0
M  V30 45 H 6.013981 5.788529 -10.344323 0
M  V30 46 H 5.856420 4.051631 -10.531331 0
M  V30 47 H 7.062547 4.703831 -9.444401 0
M  V30 48 H 11.067908 5.508879 -5.437230 0
M  V30 49 H 10.987170 6.569334 -2.686737 0
M  V30 50 H 12.634836 6.257808 -3.212201 0
M  V30 51 H 8.757361 5.820866 -14.405179 0
M  V30 52 H 11.109156 10.422872 -6.113964 0
M  V30 53 H 7.350511 0.379060 -12.946275 0
M  V30 54 H 10.389668 5.108985 -7.724830 0
M  V30 55 H 9.524707 4.641430 -9.927951 0
M  V30 END ATOM
M  V30 BEGIN BOND
M  V30 1 1 5 4
M  V30 2 1 7 3
M  V30 3 1 8 6
M  V30 4 1 11 2
M  V30 5 1 13 6
M  V30 6 1 14 7
M  V30 7 2 14 9
M  V30 8 1 16 2
M  V30 9 1 17 1
M  V30 10 1 17 12
M  V30 11 2 17 13
M  V30 12 1 18 1
M  V30 13 1 18 16
M  V30 14 1 19 11
M  V30 15 1 20 16
M  V30 16 2 21 4
M  V30 17 1 21 9
M  V30 18 1 22 3
M  V30 19 1 22 9
M  V30 20 1 23 1
M  V30 21 1 23 15
M  V30 22 2 24 5
M  V30 23 1 24 14
M  V30 24 1 25 8
M  V30 25 1 25 10
M  V30 26 1 25 12
M  V30 27 1 26 4
M  V30 28 2 26 19
M  V30 29 1 27 2
M  V30 30 1 28 2
M  V30 31 1 29 3
M  V30 32 1 30 3
M  V30 33 1 31 5
M  V30 34 1 32 6
M  V30 35 1 33 6
M  V30 36 1 34 7
M  V30 37 1 35 8
M  V30 38 1 36 8
M  V30 39 1 37 12
M  V30 40 1 38 12
M  V30 41 1 39 13
M  V30 42 1 40 15
M  V30 43 1 16 41 CFG=3
M  V30 44 1 42 18
M  V30 45 1 43 18
M  V30 46 1 44 19
M  V30 47 1 45 20
M  V30 48 1 46 20
M  V30 49 1 47 20
M  V30 50 1 48 21
M  V30 51 1 49 22
M  V30 52 1 50 22
M  V30 53 1 51 23
M  V30 54 1 52 24
M  V30 55 1 25 53 CFG=1
M  V30 56 1 54 26
M  V30 57 1 55 11
M  V30 END BOND
M  V30 END CTAB
M  END
>  <i_epik_Tot_Q>  (1) 
0

>  <i_epik_Tot_abs_Q>  (1) 
0

>  <i_i_glide_confnum>  (1) 
136

>  <i_i_glide_lignum>  (1) 
29

>  <i_i_glide_posenum>  (1) 
201

>  <i_i_glide_rotatable_bonds>  (1) 
9

>  <i_lp_mmshare_version>  (1) 
72125

>  <i_m_source_file_index>  (1) 
18

>  <i_f3d_flags>  (1) 
0

>  <num_sample>  (1) 
100

>  <b_lp_Chiralities_Consistent>  (1) 
1

>  <r_epik_Charging_Adjusted_Penalty>  (1) 
0

>  <r_epik_Ionization_Penalty>  (1) 
0.026997388265497368

>  <r_epik_Ionization_Penalty_Charging>  (1) 
0

>  <r_epik_Ionization_Penalty_Neutral>  (1) 
0.026997388265497368

>  <r_epik_State_Penalty>  (1) 
-0

>  <r_glide_ring_energy>  (1) 
0

>  <r_i_docking_score>  (1) 
-5.895735877870905

>  <r_i_glide_ecoul>  (1) 
-0.77103979891297103

>  <r_i_glide_eff_state_penalty>  (1) 
-0

>  <r_i_glide_einternal>  (1) 
5.7186219057649508

>  <r_i_glide_emodel>  (1) 
-47.536340332855744

>  <r_i_glide_emodel_strain>  (1) 
0.81103030412842969

>  <r_i_glide_energy>  (1) 
-37.161669872886911

>  <r_i_glide_erotb>  (1) 
0.88558064458011865

>  <r_i_glide_esite>  (1) 
-0.078569958139818916

>  <r_i_glide_evdw>  (1) 
-36.390630073973938

>  <r_i_glide_gscore>  (1) 
-5.895735877870905

>  <r_i_glide_gscore_strain>  (1) 
0

>  <r_i_glide_hbond>  (1) 
0

>  <r_i_glide_ligand_efficiency>  (1) 
-0.22675907222580405

>  <r_i_glide_ligand_efficiency_ln>  (1) 
-1.384594225430678

>  <r_i_glide_ligand_efficiency_sa>  (1) 
-0.67177285994464753

>  <r_i_glide_lipo>  (1) 
-2.9929206485631736

>  <r_i_glide_metal>  (1) 
-0

>  <r_i_glide_rewards>  (1) 
-1.7746384422123886

>  <r_lp_Energy>  (1) 
10.435043

>  <r_lp_tautomer_probability>  (1) 
1

>  <s_epik_Chemistry_Notes>  (1) 
This compound has a N-S or N-O group and may undergo hydrolysis at high or low pH.

>  <s_epik_cmdline>  (1) 
J2VwaWtfcHl0aG9uJywgJy1waHQnLCAnMS4wJywgJy1waCcsICc3LjQnLCAnLXRuJywgJzgnLCAnLW1hJywgJzUwMCcsICctaW1hZScsICc8aW5maWxlLm1hZT4nLCAnLW9tYWUnLCAnPG91dGZpbGUubWFlPic=

>  <s_epik_input>  (1) 
RltDQEhdKFtDSDJdMSlbQ0gyXVtDSDJdW0NIXT1DMU4oW05IXVtPSF0pW0NIMl1bQ0BIXShbQ0gzXSlbQ0gyXVtOSF0vW0NIXT1bQ0hdL2MoW2NIXTIpW2NIXVtjSF1jKGMyMylbTkhdW0NIMl1bQ0gyXTM=

>  <s_glide_docking_method>  (1) 
confgen

>  <s_i_glide_gridfile>  (1) 
gpcr_drd2_6luq_protein_autoprepared_prepared

>  <s_lp_Force_Field>  (1) 
S-OPLS

>  <s_lp_Variant>  (1) 
DiffSBDD_17_num_sample_100-2

>  <s_m_source_file>  (1) 
generated__ligand_DiffSBDD_2026-05-06_prepared.sdf

>  <GenAI_Model>  (1) 
DiffSBDD

>  <Protein>  (1) 
generic_title2

$$$$
DiffSBDD_28_num_sample_100
     RDKit          3D

  0  0  0  0  0  0  0  0  0  0999 V3000
M  V30 BEGIN CTAB
M  V30 COUNTS 43 44 0 0 1
M  V30 BEGIN ATOM
M  V30 1 C 12.151025 6.707086 -2.881477 0
M  V30 2 C 8.462673 4.411025 -11.595111 0
M  V30 3 C 11.325231 6.598056 -4.183080 0
M  V30 4 N 10.400765 6.502647 -6.951723 0
M  V30 5 C 12.352411 9.212746 -3.173500 0
M  V30 6 C 10.046109 6.349581 -8.181946 0
M  V30 7 C 11.882572 9.000252 -4.608160 0
M  V30 8 O 9.888039 7.280108 -10.418229 0
M  V30 9 C 7.974561 5.049530 -9.210603 0
M  V30 10 C 6.381926 5.570908 -11.018927 0
M  V30 11 C 9.435045 5.024184 -8.673053 0
M  V30 12 C 9.009423 5.115910 -12.843715 0
M  V30 13 C 11.163306 8.700108 -7.418417 0
M  V30 14 N 10.782433 8.569200 -8.757818 0
M  V30 15 N 7.810513 5.369569 -10.657177 0 CFG=2 CHG=1
M  V30 16 C 12.028542 8.068132 -2.205473 0
M  V30 17 C 10.222770 7.439462 -9.245694 0
M  V30 18 C 10.992321 7.705329 -6.517133 0
M  V30 19 C 11.409053 7.822863 -5.095592 0
M  V30 20 H 11.871646 5.907842 -2.193395 0
M  V30 21 H 13.206851 6.569402 -3.091547 0
M  V30 22 H 9.280673 3.863985 -11.132927 0
M  V30 23 H 7.751449 3.639617 -11.893282 0
M  V30 24 H 10.278130 6.401082 -3.953995 0
M  V30 25 H 11.683991 5.736426 -4.741075 0
M  V30 26 H 13.431431 9.367636 -3.208266 0
M  V30 27 H 11.922864 10.136950 -2.786068 0
M  V30 28 H 11.951816 9.860944 -5.248786 0
M  V30 29 H 7.452751 4.117946 -9.010873 0
M  V30 30 H 7.434182 5.769391 -8.609349 0
M  V30 31 H 5.856014 4.617723 -11.088245 0
M  V30 32 H 5.835903 6.169454 -10.291430 0
M  V30 33 H 6.295725 6.071865 -11.983182 0
M  V30 34 H 10.134677 4.583003 -9.373352 0
M  V30 35 H 9.432996 4.320549 -7.854264 0
M  V30 36 H 9.435148 4.391876 -13.538445 0
M  V30 37 H 8.229627 5.659955 -13.376244 0
M  V30 38 H 9.800419 5.821765 -12.590937 0
M  V30 39 H 11.607721 9.653714 -7.192161 0
M  V30 40 H 10.945924 9.353114 -9.371399 0
M  V30 41 H 11.034724 8.190454 -1.794317 0
M  V30 42 H 12.698121 8.120421 -1.345497 0
M  V30 43 H 8.270661 6.269386 -10.764672 0
M  V30 END ATOM
M  V30 BEGIN BOND
M  V30 1 1 3 1
M  V30 2 2 6 4
M  V30 3 1 7 5
M  V30 4 1 11 6
M  V30 5 1 11 9
M  V30 6 1 12 2
M  V30 7 1 14 13
M  V30 8 1 15 2
M  V30 9 1 15 9
M  V30 10 1 15 10
M  V30 11 1 16 1
M  V30 12 1 16 5
M  V30 13 1 17 6
M  V30 14 2 17 8
M  V30 15 1 17 14
M  V30 16 1 18 4
M  V30 17 2 18 13
M  V30 18 1 19 3
M  V30 19 2 19 7
M  V30 20 1 19 18
M  V30 21 1 20 1
M  V30 22 1 21 1
M  V30 23 1 22 2
M  V30 24 1 23 2
M  V30 25 1 24 3
M  V30 26 1 25 3
M  V30 27 1 26 5
M  V30 28 1 27 5
M  V30 29 1 28 7
M  V30 30 1 29 9
M  V30 31 1 30 9
M  V30 32 1 31 10
M  V30 33 1 32 10
M  V30 34 1 33 10
M  V30 35 1 34 11
M  V30 36 1 35 11
M  V30 37 1 36 12
M  V30 38 1 37 12
M  V30 39 1 38 12
M  V30 40 1 39 13
M  V30 41 1 40 14
M  V30 42 1 41 16
M  V30 43 1 42 16
M  V30 44 1 15 43 CFG=1
M  V30 END BOND
M  V30 END CTAB
M  END
>  <i_epik_Tot_Q>  (1) 
1

>  <i_epik_Tot_abs_Q>  (1) 
1

>  <i_i_glide_confnum>  (1) 
69

>  <i_i_glide_lignum>  (1) 
48

>  <i_i_glide_posenum>  (1) 
155

>  <i_i_glide_rotatable_bonds>  (1) 
5

>  <i_lp_mmshare_version>  (1) 
72125

>  <i_m_source_file_index>  (1) 
29

>  <i_f3d_flags>  (1) 
0

>  <num_sample>  (1) 
100

>  <b_lp_Chiralities_Consistent>  (1) 
1

>  <r_epik_Charging_Adjusted_Penalty>  (1) 
0.16160378579191387

>  <r_epik_Ionization_Penalty>  (1) 
0.086651210493904285

>  <r_epik_Ionization_Penalty_Charging>  (1) 
0.086651186480528317

>  <r_epik_Ionization_Penalty_Neutral>  (1) 
2.4013375966173516e-08

>  <r_epik_State_Penalty>  (1) 
0.074952599311385565

>  <r_glide_ring_energy>  (1) 
0

>  <r_i_docking_score>  (1) 
-5.8788018542412654

>  <r_i_glide_ecoul>  (1) 
-3.0302089060878528

>  <r_i_glide_eff_state_penalty>  (1) 
0.074952599311385565

>  <r_i_glide_einternal>  (1) 
10.876096840078368

>  <r_i_glide_emodel>  (1) 
-44.882582979909067

>  <r_i_glide_emodel_strain>  (1) 
1.5178672358470422

>  <r_i_glide_energy>  (1) 
-35.680055498166951

>  <r_i_glide_erotb>  (1) 
1.0307106156986021

>  <r_i_glide_esite>  (1) 
-0.08405587012573254

>  <r_i_glide_evdw>  (1) 
-32.649846592079101

>  <r_i_glide_gscore>  (1) 
-5.9537544535526514

>  <r_i_glide_gscore_strain>  (1) 
0

>  <r_i_glide_hbond>  (1) 
0

>  <r_i_glide_ligand_efficiency>  (1) 
-0.30941062390743501

>  <r_i_glide_ligand_efficiency_ln>  (1) 
-1.490402535136595

>  <r_i_glide_ligand_efficiency_sa>  (1) 
-0.82563181896668536

>  <r_i_glide_lipo>  (1) 
-2.5647559352676983

>  <r_i_glide_metal>  (1) 
-0

>  <r_i_glide_rewards>  (1) 
-2.2486295983406901

>  <r_lp_Energy>  (1) 
45.017665000000001

>  <s_epik_cmdline>  (1) 
J2VwaWtfcHl0aG9uJywgJy1waHQnLCAnMS4wJywgJy1waCcsICc3LjQnLCAnLXRuJywgJzgnLCAnLW1hJywgJzUwMCcsICctaW1hZScsICc8aW5maWxlLm1hZT4nLCAnLW9tYWUnLCAnPG91dGZpbGUubWFlPic=

>  <s_epik_input>  (1) 
W0NIMl0xW0NIMl1bQ0gyXVtDSDJdW0NIXT1DMWMoW2NIXVtuSF1jMj1PKW5jMltDSDJdW0NIMl1OKFtDSDNdKVtDSDJdW0NIM10=

>  <s_glide_docking_method>  (1) 
confgen

>  <s_i_glide_gridfile>  (1) 
gpcr_drd2_6luq_protein_autoprepared_prepared

>  <s_lp_Force_Field>  (1) 
S-OPLS

>  <s_lp_Variant>  (1) 
DiffSBDD_28_num_sample_100-2

>  <s_m_source_file>  (1) 
generated__ligand_DiffSBDD_2026-05-06_prepared.sdf

>  <GenAI_Model>  (1) 
DiffSBDD

>  <Protein>  (1) 
generic_title2

$$$$
DiffSBDD_20_num_sample_100
     RDKit          3D

  0  0  0  0  0  0  0  0  0  0999 V3000
M  V30 BEGIN CTAB
M  V30 COUNTS 52 53 0 0 1
M  V30 BEGIN ATOM
M  V30 1 C 11.034843 6.797295 -4.701741 0
M  V30 2 C 7.333301 5.514559 -15.696698 0 CFG=2
M  V30 3 C 10.528140 5.915187 -7.796423 0
M  V30 4 C 11.854395 7.441653 -3.755416 0
M  V30 5 C 10.593807 7.494725 -5.845001 0
M  V30 6 C 6.058213 7.382461 -16.943693 0
M  V30 7 C 9.704636 6.801173 -6.858173 0
M  V30 8 C 9.278449 5.805337 -10.011837 0
M  V30 9 C 12.234427 8.785460 -3.950235 0
M  V30 10 C 6.712653 5.137081 -13.201064 0
M  V30 11 S 8.021350 6.113991 -12.415752 0
M  V30 12 C 10.978350 8.836004 -6.042416 0
M  V30 13 C 7.911632 4.096151 -15.855490 0
M  V30 14 C 5.713967 7.056549 -14.502250 0
M  V30 15 O 6.211254 4.145867 -12.671001 0
M  V30 16 C 9.667029 5.048342 -8.731464 0
M  V30 17 C 6.258681 5.621839 -14.581115 0 CFG=1
M  V30 18 C 8.475156 5.003986 -11.049997 0 CFG=1
M  V30 19 C 11.797022 9.481509 -5.095439 0
M  V30 20 C 9.270592 3.815386 -11.608925 0
M  V30 21 C 6.750157 6.009323 -17.043382 0
M  V30 22 C 5.034480 7.422803 -15.826876 0
M  V30 23 H 10.741042 5.769740 -4.549058 0
M  V30 24 H 8.164580 6.169278 -15.434749 0
M  V30 25 H 11.220440 6.530370 -8.372288 0
M  V30 26 H 11.158077 5.271698 -7.186228 0
M  V30 27 H 12.190580 6.906333 -2.879226 0
M  V30 28 H 5.597802 7.649587 -17.895066 0
M  V30 29 H 6.754746 8.169805 -16.691776 0
M  V30 30 H 8.975183 6.192332 -6.320655 0
M  V30 31 H 9.128678 7.535600 -7.424040 0
M  V30 32 H 8.686558 6.668855 -9.721487 0
M  V30 33 H 10.174411 6.203228 -10.488563 0
M  V30 34 H 12.861716 9.280681 -3.223361 0
M  V30 35 H 10.642890 9.369328 -6.918337 0
M  V30 36 H 7.128031 3.368066 -16.068409 0
M  V30 37 H 8.635126 4.058598 -16.670110 0
M  V30 38 H 8.432478 3.769558 -14.955774 0
M  V30 39 H 5.034835 7.163951 -13.659647 0
M  V30 40 H 6.525780 7.760512 -14.311921 0
M  V30 41 H 10.234502 4.156381 -8.989745 0
M  V30 42 H 8.776044 4.690567 -8.214025 0
M  V30 43 H 5.434822 4.968877 -14.859375 0
M  V30 44 H 7.563778 4.646892 -10.569062 0
M  V30 45 H 12.087968 10.510642 -5.247558 0
M  V30 46 H 9.434823 3.062771 -10.844222 0
M  V30 47 H 8.748532 3.312107 -12.421437 0
M  V30 48 H 10.234848 4.145319 -11.995212 0
M  V30 49 H 6.024387 5.285636 -17.413933 0
M  V30 50 H 7.537909 6.054400 -17.795369 0
M  V30 51 H 4.235971 6.723158 -16.071210 0
M  V30 52 H 4.590599 8.417051 -15.761516 0
M  V30 END ATOM
M  V30 BEGIN BOND
M  V30 1 1 4 1
M  V30 2 2 5 1
M  V30 3 1 7 3
M  V30 4 1 7 5
M  V30 5 2 9 4
M  V30 6 1 11 10
M  V30 7 1 12 5
M  V30 8 1 13 2
M  V30 9 2 15 10
M  V30 10 1 16 3
M  V30 11 1 16 8
M  V30 12 1 17 2
M  V30 13 1 17 10
M  V30 14 1 17 14
M  V30 15 1 18 8
M  V30 16 1 18 11
M  V30 17 1 19 9
M  V30 18 2 19 12
M  V30 19 1 20 18
M  V30 20 1 21 2
M  V30 21 1 21 6
M  V30 22 1 22 6
M  V30 23 1 22 14
M  V30 24 1 23 1
M  V30 25 1 2 24 CFG=1
M  V30 26 1 25 3
M  V30 27 1 26 3
M  V30 28 1 27 4
M  V30 29 1 28 6
M  V30 30 1 29 6
M  V30 31 1 30 7
M  V30 32 1 31 7
M  V30 33 1 32 8
M  V30 34 1 33 8
M  V30 35 1 34 9
M  V30 36 1 35 12
M  V30 37 1 36 13
M  V30 38 1 37 13
M  V30 39 1 38 13
M  V30 40 1 39 14
M  V30 41 1 40 14
M  V30 42 1 41 16
M  V30 43 1 42 16
M  V30 44 1 17 43 CFG=3
M  V30 45 1 18 44 CFG=1
M  V30 46 1 45 19
M  V30 47 1 46 20
M  V30 48 1 47 20
M  V30 49 1 48 20
M  V30 50 1 49 21
M  V30 51 1 50 21
M  V30 52 1 51 22
M  V30 53 1 52 22
M  V30 END BOND
M  V30 END CTAB
M  END
>  <i_epik_Tot_Q>  (1) 
0

>  <i_epik_Tot_abs_Q>  (1) 
0

>  <i_i_glide_confnum>  (1) 
98

>  <i_i_glide_lignum>  (1) 
32

>  <i_i_glide_posenum>  (1) 
387

>  <i_i_glide_rotatable_bonds>  (1) 
8

>  <i_lp_mmshare_version>  (1) 
72125

>  <i_m_source_file_index>  (1) 
21

>  <i_f3d_flags>  (1) 
0

>  <num_sample>  (1) 
100

>  <b_lp_Chiralities_Consistent>  (1) 
1

>  <r_epik_Charging_Adjusted_Penalty>  (1) 
0

>  <r_epik_Ionization_Penalty>  (1) 
0

>  <r_epik_Ionization_Penalty_Charging>  (1) 
0

>  <r_epik_Ionization_Penalty_Neutral>  (1) 
0

>  <r_epik_State_Penalty>  (1) 
-0

>  <r_glide_ring_energy>  (1) 
0

>  <r_i_docking_score>  (1) 
-5.8751019464940599

>  <r_i_glide_ecoul>  (1) 
-1.6572349382734357

>  <r_i_glide_eff_state_penalty>  (1) 
-0

>  <r_i_glide_einternal>  (1) 
5.3320818291811811

>  <r_i_glide_emodel>  (1) 
-42.986112354837175

>  <r_i_glide_emodel_strain>  (1) 
0

>  <r_i_glide_energy>  (1) 
-33.625863053783263

>  <r_i_glide_erotb>  (1) 
1.2864650569138796

>  <r_i_glide_esite>  (1) 
0

>  <r_i_glide_evdw>  (1) 
-31.968628115509826

>  <r_i_glide_gscore>  (1) 
-5.8751019464940599

>  <r_i_glide_gscore_strain>  (1) 
0

>  <r_i_glide_hbond>  (1) 
0

>  <r_i_glide_ligand_efficiency>  (1) 
-0.26705008847700273

>  <r_i_glide_ligand_efficiency_ln>  (1) 
-1.4360892152735345

>  <r_i_glide_ligand_efficiency_sa>  (1) 
-0.74828485116756271

>  <r_i_glide_lipo>  (1) 
-3.2260952029460306

>  <r_i_glide_metal>  (1) 
-0

>  <r_i_glide_rewards>  (1) 
-2.0884551539454019

>  <r_lp_Energy>  (1) 
15.270403

>  <r_lp_tautomer_probability>  (1) 
1

>  <s_epik_cmdline>  (1) 
J2VwaWtfcHl0aG9uJywgJy1waHQnLCAnMS4wJywgJy1waCcsICc3LjQnLCAnLXRuJywgJzgnLCAnLW1hJywgJzUwMCcsICctaW1hZScsICc8aW5maWxlLm1hZT4nLCAnLW9tYWUnLCAnPG91dGZpbGUubWFlPic=

>  <s_epik_input>  (1) 
W2NIXTFbY0hdW2NIXVtjSF1bY0hdYzFbQ0gyXVtDSDJdW0NIMl1bQ0gyXVtDQEhdKFtDSDNdKVNDKD1PKVtDQEhdKFtDQEhdMltDSDNdKVtDSDJdW0NIMl1bQ0gyXVtDSDJdMg==

>  <s_glide_docking_method>  (1) 
confgen

>  <s_i_glide_gridfile>  (1) 
gpcr_drd2_6luq_protein_autoprepared_prepared

>  <s_lp_Force_Field>  (1) 
S-OPLS

>  <s_lp_Variant>  (1) 
DiffSBDD_20_num_sample_100-1

>  <s_m_source_file>  (1) 
generated__ligand_DiffSBDD_2026-05-06_prepared.sdf

>  <GenAI_Model>  (1) 
DiffSBDD

>  <Protein>  (1) 
generic_title2

$$$$
DiffSBDD_72_num_sample_100
     RDKit          3D

  0  0  0  0  0  0  0  0  0  0999 V3000
M  V30 BEGIN CTAB
M  V30 COUNTS 32 34 0 0 1
M  V30 BEGIN ATOM
M  V30 1 C 9.834809 6.569268 -10.599671 0
M  V30 2 C 11.422425 7.380377 -4.691690 0
M  V30 3 C 9.034824 5.766901 -8.019818 0
M  V30 4 C 10.319439 7.255481 -9.469396 0
M  V30 5 C 10.406941 7.611161 -6.934656 0 CFG=2
M  V30 6 C 11.473571 8.718481 -7.148133 0
M  V30 7 N 10.816377 6.808849 -5.787286 0
M  V30 8 C 8.954437 5.482445 -10.441029 0
M  V30 9 C 11.577843 6.569303 -3.469707 0
M  V30 10 C 9.918398 6.854787 -8.170655 0
M  V30 11 F 8.490089 4.823074 -11.528856 0
M  V30 12 C 8.554712 5.082597 -9.152481 0
M  V30 13 C 11.739847 9.549261 -5.851516 0
M  V30 14 C 12.261727 7.716683 -2.590772 0
M  V30 15 C 12.408896 9.091248 -3.395075 0
M  V30 16 C 11.834797 8.606925 -4.662584 0
M  V30 17 H 10.138496 6.876472 -11.589226 0
M  V30 18 H 8.715568 5.464112 -7.036023 0
M  V30 19 H 10.990224 8.087334 -9.602626 0
M  V30 20 H 9.507527 8.128367 -6.595697 0
M  V30 21 H 12.404340 8.255146 -7.479259 0
M  V30 22 H 11.163175 9.369300 -7.953123 0
M  V30 23 H 10.626184 6.221056 -3.067861 0
M  V30 24 H 7.871081 4.255706 -9.032323 0
M  V30 25 H 12.663108 10.120480 -5.952094 0
M  V30 26 H 10.932310 10.258938 -5.670893 0
M  V30 27 H 13.251341 7.382196 -2.291666 0
M  V30 28 H 11.696365 7.877381 -1.672101 0
M  V30 29 H 11.801351 9.888865 -2.966836 0
M  V30 30 H 13.434846 9.423456 -3.515637 0
M  V30 31 H 12.234839 5.719446 -3.630797 0
M  V30 32 H 10.474610 5.859234 -5.732197 0
M  V30 END ATOM
M  V30 BEGIN BOND
M  V30 1 2 4 1
M  V30 2 1 6 5
M  V30 3 1 7 2
M  V30 4 1 7 5
M  V30 5 1 8 1
M  V30 6 1 9 2
M  V30 7 2 10 3
M  V30 8 1 10 4
M  V30 9 1 10 5
M  V30 10 1 11 8
M  V30 11 1 12 3
M  V30 12 2 12 8
M  V30 13 1 13 6
M  V30 14 1 14 9
M  V30 15 1 15 14
M  V30 16 2 16 2
M  V30 17 1 16 13
M  V30 18 1 16 15
M  V30 19 1 17 1
M  V30 20 1 18 3
M  V30 21 1 19 4
M  V30 22 1 5 20 CFG=1
M  V30 23 1 21 6
M  V30 24 1 22 6
M  V30 25 1 23 9
M  V30 26 1 24 12
M  V30 27 1 25 13
M  V30 28 1 26 13
M  V30 29 1 27 14
M  V30 30 1 28 14
M  V30 31 1 29 15
M  V30 32 1 30 15
M  V30 33 1 31 9
M  V30 34 1 32 7
M  V30 END BOND
M  V30 END CTAB
M  END
>  <i_epik_Tot_Q>  (1) 
0

>  <i_epik_Tot_abs_Q>  (1) 
0

>  <i_i_glide_confnum>  (1) 
2

>  <i_i_glide_lignum>  (1) 
145

>  <i_i_glide_posenum>  (1) 
156

>  <i_i_glide_rotatable_bonds>  (1) 
1

>  <i_lp_mmshare_version>  (1) 
72125

>  <i_m_source_file_index>  (1) 
73

>  <i_f3d_flags>  (1) 
0

>  <num_sample>  (1) 
100

>  <b_lp_Chiralities_Consistent>  (1) 
1

>  <r_epik_Charging_Adjusted_Penalty>  (1) 
0.00012261153731157732

>  <r_epik_Ionization_Penalty>  (1) 
0.00096767274994002245

>  <r_epik_Ionization_Penalty_Charging>  (1) 
0.00012261153731157732

>  <r_epik_Ionization_Penalty_Neutral>  (1) 
0.00084506121262844516

>  <r_epik_State_Penalty>  (1) 
-0

>  <r_glide_ring_energy>  (1) 
0

>  <r_i_docking_score>  (1) 
-5.850480642990318

>  <r_i_glide_ecoul>  (1) 
-0.10611879808977825

>  <r_i_glide_eff_state_penalty>  (1) 
-0

>  <r_i_glide_einternal>  (1) 
1.9149386856234258

>  <r_i_glide_emodel>  (1) 
-39.24675896336624

>  <r_i_glide_emodel_strain>  (1) 
0

>  <r_i_glide_energy>  (1) 
-30.616267267458063

>  <r_i_glide_erotb>  (1) 
0.35536468767402363

>  <r_i_glide_esite>  (1) 
0

>  <r_i_glide_evdw>  (1) 
-30.510148469368286

>  <r_i_glide_gscore>  (1) 
-5.850480642990318

>  <r_i_glide_gscore_strain>  (1) 
0

>  <r_i_glide_hbond>  (1) 
0

>  <r_i_glide_ligand_efficiency>  (1) 
-0.36565504018689488

>  <r_i_glide_ligand_efficiency_ln>  (1) 
-1.5507867604282333

>  <r_i_glide_ligand_efficiency_sa>  (1) 
-0.92139296426324935

>  <r_i_glide_lipo>  (1) 
-1.8088065799604491

>  <r_i_glide_metal>  (1) 
-0

>  <r_i_glide_rewards>  (1) 
-2.855613507522011

>  <r_lp_Energy>  (1) 
12.315507

>  <r_lp_tautomer_probability>  (1) 
1

>  <s_epik_Chemistry_Notes>  (1) 
This compound has an imine and may undergo hydrolysis.

>  <s_epik_cmdline>  (1) 
J2VwaWtfcHl0aG9uJywgJy1waHQnLCAnMS4wJywgJy1waCcsICc3LjQnLCAnLXRuJywgJzgnLCAnLW1hJywgJzUwMCcsICctaW1hZScsICc8aW5maWxlLm1hZT4nLCAnLW9tYWUnLCAnPG91dGZpbGUubWFlPic=

>  <s_epik_input>  (1) 
RmMxW2NIXVtjSF1jKFtjSF1bY0hdMSlbQ0BIXShOMilbQ0gyXVtDSDJdW0NASF0oQz0yMylbQ0gyXVtDSDJdW0NIMl0z

>  <s_glide_docking_method>  (1) 
confgen

>  <s_i_glide_gridfile>  (1) 
gpcr_drd2_6luq_protein_autoprepared_prepared

>  <s_lp_Force_Field>  (1) 
S-OPLS

>  <s_lp_Variant>  (1) 
DiffSBDD_72_num_sample_100-2

>  <s_m_source_file>  (1) 
generated__ligand_DiffSBDD_2026-05-06_prepared.sdf

>  <GenAI_Model>  (1) 
DiffSBDD

>  <Protein>  (1) 
generic_title2

$$$$
DiffSBDD_27_num_sample_100
     RDKit          3D

  0  0  0  0  0  0  0  0  0  0999 V3000
M  V30 BEGIN CTAB
M  V30 COUNTS 57 57 0 0 1
M  V30 BEGIN ATOM
M  V30 1 C 12.357569 8.453621 -3.929889 0 CFG=2
M  V30 2 C 9.814822 4.897505 -9.290025 0
M  V30 3 N 11.833073 9.769309 -3.676803 0
M  V30 4 C 8.313238 1.426086 -13.231870 0
M  V30 5 C 11.376531 6.525711 -2.995751 0
M  V30 6 C 10.431579 7.224008 -8.484328 0
M  V30 7 N 7.531121 5.368506 -9.936244 0 CHG=1
M  V30 8 C 8.255506 4.518353 -12.842756 0
M  V30 9 C 7.164161 2.354417 -13.672337 0
M  V30 10 C 5.850283 1.583205 -13.443253 0
M  V30 11 C 8.919335 5.342189 -10.426263 0 CFG=2
M  V30 12 C 9.127110 4.340334 -11.587397 0
M  V30 13 C 11.442986 7.738986 -4.968081 0
M  V30 14 C 8.962479 7.204520 -6.534489 0
M  V30 15 C 12.234873 7.605489 -2.615094 0
M  V30 16 O 12.661512 7.887126 -1.499605 0
M  V30 17 C 11.311120 8.033701 -6.287423 0
M  V30 18 N 7.089607 3.594814 -12.850860 0 CHG=1
M  V30 19 N 10.264593 7.549099 -7.081641 0
M  V30 20 C 10.965267 6.610918 -4.232684 0
M  V30 21 C 12.279587 8.964419 -7.005667 0
M  V30 22 C 7.313809 2.711062 -15.166129 0
M  V30 23 C 10.478106 5.714537 -8.457357 0
M  V30 24 H 13.392549 8.529413 -4.262349 0
M  V30 25 H 9.920062 3.830723 -9.158439 0
M  V30 26 H 10.872129 9.732711 -3.375756 0
M  V30 27 H 12.335944 10.202066 -2.911980 0
M  V30 28 H 9.259629 1.942306 -13.091590 0
M  V30 29 H 8.089325 0.932356 -12.291670 0
M  V30 30 H 8.475690 0.629745 -13.959628 0
M  V30 31 H 11.109691 5.745192 -2.307112 0
M  V30 32 H 9.604875 7.621270 -9.071759 0
M  V30 33 H 11.360690 7.606553 -8.906958 0
M  V30 34 H 7.433459 6.147844 -9.285796 0
M  V30 35 H 6.891960 5.578536 -10.685187 0
M  V30 36 H 7.895050 5.546210 -12.901405 0
M  V30 37 H 8.870274 4.376869 -13.731140 0
M  V30 38 H 4.977298 2.232011 -13.491629 0
M  V30 39 H 5.716323 0.780958 -14.170136 0
M  V30 40 H 5.835183 1.118322 -12.455946 0
M  V30 41 H 9.181212 6.343644 -10.768082 0
M  V30 42 H 10.167412 4.436249 -11.903990 0
M  V30 43 H 9.045675 3.318239 -11.222471 0
M  V30 44 H 8.624108 8.011475 -5.890430 0
M  V30 45 H 8.234812 7.133396 -7.337972 0
M  V30 46 H 8.931087 6.245757 -6.025228 0
M  V30 47 H 6.872318 3.324863 -11.904113 0
M  V30 48 H 10.316367 5.870527 -4.666074 0
M  V30 49 H 13.058604 8.382858 -7.497731 0
M  V30 50 H 11.772964 9.565567 -7.757910 0
M  V30 51 H 12.769145 9.654544 -6.318563 0
M  V30 52 H 8.316204 3.061107 -15.409099 0
M  V30 53 H 7.127753 1.844463 -15.802446 0
M  V30 54 H 6.625098 3.496080 -15.471155 0
M  V30 55 H 11.098548 5.278669 -7.688991 0
M  V30 56 H 6.302981 4.113962 -13.215496 0
M  V30 57 H 7.272270 4.513278 -9.465479 0
M  V30 END ATOM
M  V30 BEGIN BOND
M  V30 1 1 3 1
M  V30 2 1 9 4
M  V30 3 1 10 9
M  V30 4 1 11 2
M  V30 5 1 11 7
M  V30 6 1 12 8
M  V30 7 1 12 11
M  V30 8 1 13 1
M  V30 9 1 15 1
M  V30 10 1 15 5
M  V30 11 2 16 15
M  V30 12 2 17 13
M  V30 13 1 18 8
M  V30 14 1 18 9
M  V30 15 1 19 6
M  V30 16 1 19 14
M  V30 17 1 19 17
M  V30 18 2 20 5
M  V30 19 1 20 13
M  V30 20 1 21 17
M  V30 21 1 22 9
M  V30 22 2 23 2
M  V30 23 1 23 6
M  V30 24 1 1 24 CFG=3
M  V30 25 1 25 2
M  V30 26 1 26 3
M  V30 27 1 27 3
M  V30 28 1 28 4
M  V30 29 1 29 4
M  V30 30 1 30 4
M  V30 31 1 31 5
M  V30 32 1 32 6
M  V30 33 1 33 6
M  V30 34 1 34 7
M  V30 35 1 35 7
M  V30 36 1 36 8
M  V30 37 1 37 8
M  V30 38 1 38 10
M  V30 39 1 39 10
M  V30 40 1 40 10
M  V30 41 1 11 41 CFG=3
M  V30 42 1 42 12
M  V30 43 1 43 12
M  V30 44 1 44 14
M  V30 45 1 45 14
M  V30 46 1 46 14
M  V30 47 1 47 18
M  V30 48 1 48 20
M  V30 49 1 49 21
M  V30 50 1 50 21
M  V30 51 1 51 21
M  V30 52 1 52 22
M  V30 53 1 53 22
M  V30 54 1 54 22
M  V30 55 1 55 23
M  V30 56 1 56 18
M  V30 57 1 57 7
M  V30 END BOND
M  V30 END CTAB
M  END
>  <i_epik_Tot_Q>  (1) 
2

>  <i_epik_Tot_abs_Q>  (1) 
2

>  <i_i_glide_confnum>  (1) 
195

>  <i_i_glide_lignum>  (1) 
44

>  <i_i_glide_posenum>  (1) 
65

>  <i_i_glide_rotatable_bonds>  (1) 
8

>  <i_lp_mmshare_version>  (1) 
72125

>  <i_m_source_file_index>  (1) 
28

>  <i_f3d_flags>  (1) 
0

>  <num_sample>  (1) 
100

>  <b_lp_Chiralities_Consistent>  (1) 
1

>  <r_epik_Charging_Adjusted_Penalty>  (1) 
0.47954930221194114

>  <r_epik_Ionization_Penalty>  (1) 
0.082650424812652987

>  <r_epik_Ionization_Penalty_Charging>  (1) 
0.068869463259337155

>  <r_epik_Ionization_Penalty_Neutral>  (1) 
0.013780961553315832

>  <r_epik_State_Penalty>  (1) 
0.41067983895260396

>  <r_glide_ring_energy>  (1) 
0

>  <r_i_docking_score>  (1) 
-5.8464405524384251

>  <r_i_glide_ecoul>  (1) 
-9.9510667930768832

>  <r_i_glide_eff_state_penalty>  (1) 
0.41067983895260396

>  <r_i_glide_einternal>  (1) 
9.5427148718924766

>  <r_i_glide_emodel>  (1) 
-43.292190969366885

>  <r_i_glide_emodel_strain>  (1) 
8.9849501139353123

>  <r_i_glide_energy>  (1) 
-35.640957332689752

>  <r_i_glide_erotb>  (1) 
0.88107071462136088

>  <r_i_glide_esite>  (1) 
-0.10000000000000001

>  <r_i_glide_evdw>  (1) 
-25.689890539612865

>  <r_i_glide_gscore>  (1) 
-6.2571203913910294

>  <r_i_glide_gscore_strain>  (1) 
1.2462375284838281

>  <r_i_glide_hbond>  (1) 
-0.14511497128927475

>  <r_i_glide_ligand_efficiency>  (1) 
-0.25419306749732284

>  <r_i_glide_ligand_efficiency_ln>  (1) 
-1.4137223381715855

>  <r_i_glide_ligand_efficiency_sa>  (1) 
-0.7228912711628166

>  <r_i_glide_lipo>  (1) 
-2.4809099501452261

>  <r_i_glide_metal>  (1) 
-0

>  <r_i_glide_rewards>  (1) 
-2.8812491671195408

>  <r_lp_Energy>  (1) 
30.360168999999999

>  <r_lp_tautomer_probability>  (1) 
0.5

>  <s_epik_cmdline>  (1) 
J2VwaWtfcHl0aG9uJywgJy1waHQnLCAnMS4wJywgJy1waCcsICc3LjQnLCAnLXRuJywgJzgnLCAnLW1hJywgJzUwMCcsICctaW1hZScsICc8aW5maWxlLm1hZT4nLCAnLW9tYWUnLCAnPG91dGZpbGUubWFlPic=

>  <s_epik_input>  (1) 
Tz1DMVtDSF09W0NIXUMoXFtDQEhdMVtOSDJdKT1DKFtDSDNdKS9OKFtDSDNdKVtDSDJdL1tDSF09W0NIXVxbQ0BIXShbTkgyXSlbQ0gyXVtDSDJdW05IXUMoW0NIM10pKFtDSDNdKVtDSDNd

>  <s_glide_docking_method>  (1) 
confgen

>  <s_i_glide_gridfile>  (1) 
gpcr_drd2_6luq_protein_autoprepared_prepared

>  <s_lp_Force_Field>  (1) 
S-OPLS

>  <s_lp_Variant>  (1) 
DiffSBDD_27_num_sample_100-2

>  <s_m_source_file>  (1) 
generated__ligand_DiffSBDD_2026-05-06_prepared.sdf

>  <GenAI_Model>  (1) 
DiffSBDD

>  <Protein>  (1) 
generic_title2

$$$$
DiffSBDD_63_num_sample_100
     RDKit          3D

  0  0  0  0  0  0  0  0  0  0999 V3000
M  V30 BEGIN CTAB
M  V30 COUNTS 56 56 0 0 1
M  V30 BEGIN ATOM
M  V30 1 C 11.034839 10.169301 -3.491663 0
M  V30 2 C 7.583962 4.233904 -12.287814 0
M  V30 3 C 5.929159 6.981414 -12.113673 0
M  V30 4 C 9.032739 5.303047 -9.190147 0
M  V30 5 C 11.640549 7.818709 -9.254607 0
M  V30 6 C 7.227717 5.077352 -11.079519 0
M  V30 7 C 7.943150 5.111500 -13.502110 0 CFG=1
M  V30 8 C 12.304399 8.089484 -7.891645 0
M  V30 9 C 11.399978 8.248086 -6.661980 0
M  V30 10 C 12.377244 8.061890 -3.733495 0
M  V30 11 C 5.856042 6.565956 -13.572494 0
M  V30 12 C 10.425501 7.363192 -6.339950 0
M  V30 13 C 12.249339 7.814142 -2.217197 0
M  V30 14 C 10.465930 8.749443 -9.550032 0
M  V30 15 C 5.897628 5.803217 -11.126562 0
M  V30 16 N 9.034840 6.113761 -8.067472 0
M  V30 17 O 8.631893 4.274006 -14.420428 0
M  V30 18 C 11.680433 9.481864 -5.809411 0
M  V30 19 C 11.651779 9.293705 -4.289384 0
M  V30 20 C 6.735177 5.746487 -14.181150 0
M  V30 21 C 10.122110 6.087256 -7.102816 0
M  V30 22 C 9.507591 4.969297 -15.295498 0
M  V30 23 C 8.061918 5.215605 -10.069901 0
M  V30 24 H 10.527923 11.029267 -3.897001 0
M  V30 25 H 11.034842 10.039709 -2.424076 0
M  V30 26 H 8.442569 3.605988 -12.039572 0
M  V30 27 H 6.765175 3.552698 -12.522000 0
M  V30 28 H 5.072112 7.626486 -11.916965 0
M  V30 29 H 6.810056 7.603279 -11.947805 0
M  V30 30 H 9.938055 4.725655 -9.288917 0
M  V30 31 H 11.327655 6.785890 -9.356844 0
M  V30 32 H 12.391594 7.954298 -10.032832 0
M  V30 33 H 8.616642 5.904934 -13.170361 0
M  V30 34 H 13.076773 7.369301 -7.680888 0
M  V30 35 H 12.857612 9.015228 -8.024401 0
M  V30 36 H 13.434841 8.194230 -3.918327 0
M  V30 37 H 12.064432 7.159705 -4.257435 0
M  V30 38 H 5.034843 6.971501 -14.141571 0
M  V30 39 H 9.813659 7.548786 -5.470927 0
M  V30 40 H 12.783323 6.906331 -1.938831 0
M  V30 41 H 11.217247 7.686834 -1.891672 0
M  V30 42 H 12.685415 8.632601 -1.641424 0
M  V30 43 H 10.066481 8.569294 -10.548140 0
M  V30 44 H 10.804162 9.778556 -9.491668 0
M  V30 45 H 9.645450 8.628696 -8.843825 0
M  V30 46 H 5.636128 6.169300 -10.135303 0
M  V30 47 H 5.109091 5.098763 -11.391695 0
M  V30 48 H 8.169399 6.596332 -7.826982 0
M  V30 49 H 12.686068 9.841569 -6.027524 0
M  V30 50 H 11.004529 10.280919 -6.114308 0
M  V30 51 H 6.596842 5.510813 -15.226079 0
M  V30 52 H 9.834867 5.369304 -6.347874 0
M  V30 53 H 11.034833 5.691977 -7.545828 0
M  V30 54 H 9.936312 4.269768 -16.012287 0
M  V30 55 H 10.331901 5.414349 -14.737819 0
M  V30 56 H 8.995477 5.751389 -15.857143 0
M  V30 END ATOM
M  V30 BEGIN BOND
M  V30 1 1 6 2
M  V30 2 1 7 2
M  V30 3 1 8 5
M  V30 4 1 9 8
M  V30 5 1 11 3
M  V30 6 2 12 9
M  V30 7 1 13 10
M  V30 8 1 14 5
M  V30 9 1 15 3
M  V30 10 1 15 6
M  V30 11 1 16 4
M  V30 12 1 17 7
M  V30 13 1 18 9
M  V30 14 2 19 1
M  V30 15 1 19 10
M  V30 16 1 19 18
M  V30 17 1 20 7
M  V30 18 2 20 11
M  V30 19 1 21 12
M  V30 20 1 21 16
M  V30 21 1 22 17
M  V30 22 2 23 4
M  V30 23 2 23 6
M  V30 24 1 24 1
M  V30 25 1 25 1
M  V30 26 1 26 2
M  V30 27 1 27 2
M  V30 28 1 28 3
M  V30 29 1 29 3
M  V30 30 1 30 4
M  V30 31 1 31 5
M  V30 32 1 32 5
M  V30 33 1 7 33 CFG=1
M  V30 34 1 34 8
M  V30 35 1 35 8
M  V30 36 1 36 10
M  V30 37 1 37 10
M  V30 38 1 38 11
M  V30 39 1 39 12
M  V30 40 1 40 13
M  V30 41 1 41 13
M  V30 42 1 42 13
M  V30 43 1 43 14
M  V30 44 1 44 14
M  V30 45 1 45 14
M  V30 46 1 46 15
M  V30 47 1 47 15
M  V30 48 1 48 16
M  V30 49 1 49 18
M  V30 50 1 50 18
M  V30 51 1 51 20
M  V30 52 1 52 21
M  V30 53 1 53 21
M  V30 54 1 54 22
M  V30 55 1 55 22
M  V30 56 1 56 22
M  V30 END BOND
M  V30 END CTAB
M  END
>  <i_epik_Tot_Q>  (1) 
0

>  <i_epik_Tot_abs_Q>  (1) 
0

>  <i_i_glide_confnum>  (1) 
300

>  <i_i_glide_lignum>  (1) 
125

>  <i_i_glide_posenum>  (1) 
64

>  <i_i_glide_rotatable_bonds>  (1) 
9

>  <i_lp_mmshare_version>  (1) 
72125

>  <i_m_source_file_index>  (1) 
64

>  <i_f3d_flags>  (1) 
0

>  <num_sample>  (1) 
100

>  <b_lp_Chiralities_Consistent>  (1) 
1

>  <r_epik_Charging_Adjusted_Penalty>  (1) 
0

>  <r_epik_Ionization_Penalty>  (1) 
2.3151810028890752e-06

>  <r_epik_Ionization_Penalty_Charging>  (1) 
0

>  <r_epik_Ionization_Penalty_Neutral>  (1) 
2.3151810028890752e-06

>  <r_epik_State_Penalty>  (1) 
-0

>  <r_glide_ring_energy>  (1) 
0

>  <r_i_docking_score>  (1) 
-5.843884845906965

>  <r_i_glide_ecoul>  (1) 
-1.27436350355452

>  <r_i_glide_eff_state_penalty>  (1) 
-0

>  <r_i_glide_einternal>  (1) 
6.216119822398765

>  <r_i_glide_emodel>  (1) 
-37.429012616942828

>  <r_i_glide_emodel_strain>  (1) 
2.4598101662407323

>  <r_i_glide_energy>  (1) 
-32.816446182024329

>  <r_i_glide_erotb>  (1) 
1.3082352225513891

>  <r_i_glide_esite>  (1) 
-0.083786312604769569

>  <r_i_glide_evdw>  (1) 
-31.542082678469811

>  <r_i_glide_gscore>  (1) 
-5.843884845906965

>  <r_i_glide_gscore_strain>  (1) 
0

>  <r_i_glide_hbond>  (1) 
-0.15416896801594454

>  <r_i_glide_ligand_efficiency>  (1) 
-0.25408194982204196

>  <r_i_glide_ligand_efficiency_ln>  (1) 
-1.4131043451584129

>  <r_i_glide_ligand_efficiency_sa>  (1) 
-0.72257526727520749

>  <r_i_glide_lipo>  (1) 
-2.9879738101991533

>  <r_i_glide_metal>  (1) 
-0

>  <r_i_glide_rewards>  (1) 
-2.1579323181818189

>  <r_lp_Energy>  (1) 
-10.607941

>  <r_lp_tautomer_probability>  (1) 
1

>  <s_epik_cmdline>  (1) 
J2VwaWtfcHl0aG9uJywgJy1waHQnLCAnMS4wJywgJy1waCcsICc3LjQnLCAnLXRuJywgJzgnLCAnLW1hJywgJzUwMCcsICctaW1hZScsICc8aW5maWxlLm1hZT4nLCAnLW9tYWUnLCAnPG91dGZpbGUubWFlPic=

>  <s_epik_input>  (1) 
W0NIM11bQ0gyXUMoPVtDSDJdKVtDSDJdQyhcW0NIMl1bQ0gyXVtDSDNdKT1bQ0hdXFtDSDJdW05IXVtDSF09Qz1DMVtDSDJdW0NAQEhdKE9bQ0gzXSlbQ0hdPVtDSF1bQ0gyXVtDSDJdMQ==

>  <s_glide_docking_method>  (1) 
confgen

>  <s_i_glide_gridfile>  (1) 
gpcr_drd2_6luq_protein_autoprepared_prepared

>  <s_lp_Force_Field>  (1) 
S-OPLS

>  <s_lp_Variant>  (1) 
DiffSBDD_63_num_sample_100-1

>  <s_m_source_file>  (1) 
generated__ligand_DiffSBDD_2026-05-06_prepared.sdf

>  <GenAI_Model>  (1) 
DiffSBDD

>  <Protein>  (1) 
generic_title2

$$$$
DiffSBDD_37_num_sample_100
     RDKit          3D

  0  0  0  0  0  0  0  0  0  0999 V3000
M  V30 BEGIN CTAB
M  V30 COUNTS 41 43 0 0 1
M  V30 BEGIN ATOM
M  V30 1 C 10.415203 6.569288 -6.091277 0
M  V30 2 O 10.516078 8.169300 -10.667009 0
M  V30 3 C 11.435138 8.700049 -6.533188 0
M  V30 4 C 10.108873 6.425549 -7.464535 0
M  V30 5 C 5.889973 4.106617 -13.260452 0 CFG=1
M  V30 6 O 7.340276 2.160409 -13.091702 0
M  V30 7 C 9.435060 5.826950 -11.505857 0
M  V30 8 C 5.623290 5.369299 -14.100504 0
M  V30 9 O 11.434845 7.892966 -4.342315 0
M  V30 10 C 6.993349 5.289565 -11.291457 0
M  V30 11 O 9.591292 6.163887 -10.137900 0
M  V30 12 C 10.489505 7.444688 -8.378307 0
M  V30 13 S 12.234799 10.056043 -5.891672 0
M  V30 14 C 8.423121 4.320197 -13.198561 0
M  V30 15 C 7.233202 3.456217 -13.645229 0 CFG=2
M  V30 16 C 11.155180 8.590059 -7.900847 0
M  V30 17 C 8.373813 4.748905 -11.716348 0 CFG=1
M  V30 18 C 11.087813 7.715824 -5.650005 0
M  V30 19 C 5.834837 4.397975 -11.748525 0
M  V30 20 C 10.206251 7.318829 -9.832752 0
M  V30 21 C 12.052192 9.205083 -4.258930 0
M  V30 22 H 10.141862 5.797896 -5.388700 0
M  V30 23 H 9.595563 5.540369 -7.811432 0
M  V30 24 H 5.091143 3.401428 -13.491544 0
M  V30 25 H 6.652991 1.617146 -13.446393 0
M  V30 26 H 10.395574 5.482658 -11.891700 0
M  V30 27 H 9.157998 6.708047 -12.087881 0
M  V30 28 H 6.340736 6.164913 -13.907749 0
M  V30 29 H 5.668894 5.149532 -15.167208 0
M  V30 30 H 4.634841 5.769306 -13.891611 0
M  V30 31 H 6.957999 5.391378 -10.206035 0
M  V30 32 H 6.850671 6.298114 -11.680445 0
M  V30 33 H 9.357506 3.794477 -13.394018 0
M  V30 34 H 8.455961 5.211057 -13.826052 0
M  V30 35 H 7.277497 3.330646 -14.728195 0
M  V30 36 H 11.449688 9.375402 -8.581789 0
M  V30 37 H 8.613245 3.877872 -11.104193 0
M  V30 38 H 5.855529 3.461185 -11.190215 0
M  V30 39 H 4.893039 4.879867 -11.491652 0
M  V30 40 H 13.034724 9.111826 -3.796018 0
M  V30 41 H 11.447021 9.832733 -3.603770 0
M  V30 END ATOM
M  V30 BEGIN BOND
M  V30 1 2 4 1
M  V30 2 1 8 5
M  V30 3 1 11 7
M  V30 4 1 12 4
M  V30 5 1 13 3
M  V30 6 1 15 5
M  V30 7 1 15 6
M  V30 8 1 15 14
M  V30 9 1 16 3
M  V30 10 2 16 12
M  V30 11 1 17 7
M  V30 12 1 17 10
M  V30 13 1 17 14
M  V30 14 1 18 1
M  V30 15 2 18 3
M  V30 16 1 18 9
M  V30 17 1 19 5
M  V30 18 1 19 10
M  V30 19 2 20 2
M  V30 20 1 20 11
M  V30 21 1 20 12
M  V30 22 1 21 9
M  V30 23 1 21 13
M  V30 24 1 22 1
M  V30 25 1 23 4
M  V30 26 1 5 24 CFG=1
M  V30 27 1 25 6
M  V30 28 1 26 7
M  V30 29 1 27 7
M  V30 30 1 28 8
M  V30 31 1 29 8
M  V30 32 1 30 8
M  V30 33 1 31 10
M  V30 34 1 32 10
M  V30 35 1 33 14
M  V30 36 1 34 14
M  V30 37 1 15 35 CFG=3
M  V30 38 1 36 16
M  V30 39 1 17 37 CFG=1
M  V30 40 1 38 19
M  V30 41 1 39 19
M  V30 42 1 40 21
M  V30 43 1 41 21
M  V30 END BOND
M  V30 END CTAB
M  END
>  <i_epik_Tot_Q>  (1) 
0

>  <i_epik_Tot_abs_Q>  (1) 
0

>  <i_i_glide_confnum>  (1) 
14

>  <i_i_glide_lignum>  (1) 
67

>  <i_i_glide_posenum>  (1) 
112

>  <i_i_glide_rotatable_bonds>  (1) 
5

>  <i_lp_mmshare_version>  (1) 
72125

>  <i_m_source_file_index>  (1) 
38

>  <i_f3d_flags>  (1) 
0

>  <num_sample>  (1) 
100

>  <b_lp_Chiralities_Consistent>  (1) 
1

>  <r_epik_Charging_Adjusted_Penalty>  (1) 
0

>  <r_epik_Ionization_Penalty>  (1) 
3.9594371976728403e-07

>  <r_epik_Ionization_Penalty_Charging>  (1) 
0

>  <r_epik_Ionization_Penalty_Neutral>  (1) 
3.9594371976728403e-07

>  <r_epik_State_Penalty>  (1) 
-0

>  <r_glide_ring_energy>  (1) 
0

>  <r_i_docking_score>  (1) 
-5.8323381251314625

>  <r_i_glide_ecoul>  (1) 
-1.0494269085924035

>  <r_i_glide_eff_state_penalty>  (1) 
-0

>  <r_i_glide_einternal>  (1) 
3.3433460563825288

>  <r_i_glide_emodel>  (1) 
-48.289856520967568

>  <r_i_glide_emodel_strain>  (1) 
0

>  <r_i_glide_energy>  (1) 
-36.673514361751558

>  <r_i_glide_erotb>  (1) 
0.58356430474883259

>  <r_i_glide_esite>  (1) 
-0.061991082488288329

>  <r_i_glide_evdw>  (1) 
-35.624087453159156

>  <r_i_glide_gscore>  (1) 
-5.8323381251314625

>  <r_i_glide_gscore_strain>  (1) 
0

>  <r_i_glide_hbond>  (1) 
0

>  <r_i_glide_ligand_efficiency>  (1) 
-0.27773038691102203

>  <r_i_glide_ligand_efficiency_ln>  (1) 
-1.4420338160898829

>  <r_i_glide_ligand_efficiency_sa>  (1) 
-0.76623707896450155

>  <r_i_glide_lipo>  (1) 
-2.3697594914206732

>  <r_i_glide_metal>  (1) 
-0

>  <r_i_glide_rewards>  (1) 
-2.045533447024515

>  <r_lp_Energy>  (1) 
12.800905

>  <r_lp_tautomer_probability>  (1) 
1

>  <s_epik_Chemistry_Notes>  (1) 
This compound has an ester and may undergo hydrolysis at high or low pH. This compound contains an acetal/aminal-like group ( X-CH(R)-Y where X, Y are N, S, or O) that may be acid/base labile, releasing an aldehyde.

>  <s_epik_cmdline>  (1) 
J2VwaWtfcHl0aG9uJywgJy1waHQnLCAnMS4wJywgJy1waCcsICc3LjQnLCAnLXRuJywgJzgnLCAnLW1hJywgJzUwMCcsICctaW1hZScsICc8aW5maWxlLm1hZT4nLCAnLW9tYWUnLCAnPG91dGZpbGUubWFlPic=

>  <s_epik_input>  (1) 
UzFbQ0gyXU9jKGMxMilbY0hdW2NIXWMoW2NIXTIpQyg9TylPW0NIMl1bQ0BASF0oW0NIMl1bQ0gyXTMpW0NIMl1bQ0BASF0oW09IXSlbQ0BASF0zW0NIM10=

>  <s_glide_docking_method>  (1) 
confgen

>  <s_i_glide_gridfile>  (1) 
gpcr_drd2_6luq_protein_autoprepared_prepared

>  <s_lp_Force_Field>  (1) 
S-OPLS

>  <s_lp_Variant>  (1) 
DiffSBDD_37_num_sample_100-1

>  <s_m_source_file>  (1) 
generated__ligand_DiffSBDD_2026-05-06_prepared.sdf

>  <GenAI_Model>  (1) 
DiffSBDD

>  <Protein>  (1) 
generic_title2

$$$$
DiffSBDD_37_num_sample_100
     RDKit          3D

  0  0  0  0  0  0  0  0  0  0999 V3000
M  V30 BEGIN CTAB
M  V30 COUNTS 41 43 0 0 1
M  V30 BEGIN ATOM
M  V30 1 C 11.543177 9.369302 -6.689156 0
M  V30 2 O 9.419592 5.169349 -7.891671 0
M  V30 3 C 11.434837 7.630051 -5.019885 0
M  V30 4 C 10.913742 8.514871 -7.627178 0
M  V30 5 C 6.859105 5.389509 -13.204352 0 CFG=1
M  V30 6 O 5.739624 7.369304 -12.291675 0
M  V30 7 C 9.354882 5.865537 -10.461329 0
M  V30 8 C 5.584955 4.532773 -13.193029 0
M  V30 9 O 12.404686 9.677771 -4.447086 0
M  V30 10 C 9.401440 5.317794 -12.936443 0
M  V30 11 O 9.834838 6.758914 -9.460881 0
M  V30 12 C 10.532191 7.202026 -7.237459 0
M  V30 13 S 11.834839 7.141107 -3.422999 0
M  V30 14 C 8.130203 7.330448 -12.155242 0
M  V30 15 C 6.829093 6.499430 -12.132861 0 CFG=2
M  V30 16 C 10.795314 6.763960 -5.917799 0
M  V30 17 C 9.356081 6.444980 -11.886961 0 CFG=1
M  V30 18 C 11.792398 8.903741 -5.385938 0
M  V30 19 C 8.099510 4.499245 -12.991070 0
M  V30 20 C 9.868082 6.271394 -8.202747 0
M  V30 21 C 12.425177 8.890377 -3.221467 0
M  V30 22 H 11.834836 10.368657 -6.972368 0
M  V30 23 H 10.722688 8.865755 -8.631182 0
M  V30 24 H 6.942710 5.857815 -14.186351 0
M  V30 25 H 5.662197 7.846718 -11.474946 0
M  V30 26 H 8.363473 5.518302 -10.178095 0
M  V30 27 H 9.967888 4.966380 -10.446854 0
M  V30 28 H 5.391721 4.118825 -12.202840 0
M  V30 29 H 4.716227 5.117710 -13.491674 0
M  V30 30 H 5.668664 3.701054 -13.891676 0
M  V30 31 H 9.596099 5.744857 -13.920313 0
M  V30 32 H 10.234795 4.649867 -12.724016 0
M  V30 33 H 8.234780 7.816141 -13.125573 0
M  V30 34 H 8.092426 8.138272 -11.426254 0
M  V30 35 H 6.673849 6.046080 -11.155177 0
M  V30 36 H 10.521562 5.769303 -5.607582 0
M  V30 37 H 10.260036 7.043818 -12.005807 0
M  V30 38 H 8.170840 3.761580 -13.791141 0
M  V30 39 H 7.989520 3.930538 -12.066672 0
M  V30 40 H 11.792564 9.386740 -2.484466 0
M  V30 41 H 13.434789 8.884691 -2.810652 0
M  V30 END ATOM
M  V30 BEGIN BOND
M  V30 1 2 4 1
M  V30 2 1 8 5
M  V30 3 1 11 7
M  V30 4 1 12 4
M  V30 5 1 13 3
M  V30 6 1 15 5
M  V30 7 1 15 6
M  V30 8 1 15 14
M  V30 9 1 16 3
M  V30 10 2 16 12
M  V30 11 1 17 7
M  V30 12 1 17 10
M  V30 13 1 17 14
M  V30 14 1 18 1
M  V30 15 2 18 3
M  V30 16 1 18 9
M  V30 17 1 19 5
M  V30 18 1 19 10
M  V30 19 2 20 2
M  V30 20 1 20 11
M  V30 21 1 20 12
M  V30 22 1 21 9
M  V30 23 1 21 13
M  V30 24 1 22 1
M  V30 25 1 23 4
M  V30 26 1 5 24 CFG=3
M  V30 27 1 25 6
M  V30 28 1 26 7
M  V30 29 1 27 7
M  V30 30 1 28 8
M  V30 31 1 29 8
M  V30 32 1 30 8
M  V30 33 1 31 10
M  V30 34 1 32 10
M  V30 35 1 33 14
M  V30 36 1 34 14
M  V30 37 1 15 35 CFG=1
M  V30 38 1 36 16
M  V30 39 1 17 37 CFG=1
M  V30 40 1 38 19
M  V30 41 1 39 19
M  V30 42 1 40 21
M  V30 43 1 41 21
M  V30 END BOND
M  V30 END CTAB
M  END
>  <i_epik_Tot_Q>  (1) 
0

>  <i_epik_Tot_abs_Q>  (1) 
0

>  <i_i_glide_confnum>  (1) 
22

>  <i_i_glide_lignum>  (1) 
67

>  <i_i_glide_posenum>  (1) 
44

>  <i_i_glide_rotatable_bonds>  (1) 
5

>  <i_lp_mmshare_version>  (1) 
72125

>  <i_m_source_file_index>  (1) 
38

>  <i_f3d_flags>  (1) 
0

>  <num_sample>  (1) 
100

>  <b_lp_Chiralities_Consistent>  (1) 
1

>  <r_epik_Charging_Adjusted_Penalty>  (1) 
0

>  <r_epik_Ionization_Penalty>  (1) 
3.9594371976728403e-07

>  <r_epik_Ionization_Penalty_Charging>  (1) 
0

>  <r_epik_Ionization_Penalty_Neutral>  (1) 
3.9594371976728403e-07

>  <r_epik_State_Penalty>  (1) 
-0

>  <r_glide_ring_energy>  (1) 
0.19167433941693801

>  <r_i_docking_score>  (1) 
-5.8309237980772037

>  <r_i_glide_ecoul>  (1) 
-2.4553455063780185

>  <r_i_glide_eff_state_penalty>  (1) 
-0

>  <r_i_glide_einternal>  (1) 
2.1399223002442618

>  <r_i_glide_emodel>  (1) 
-49.673389768508905

>  <r_i_glide_emodel_strain>  (1) 
0.14839481920090236

>  <r_i_glide_energy>  (1) 
-37.606952860066826

>  <r_i_glide_erotb>  (1) 
0.58356430474883259

>  <r_i_glide_esite>  (1) 
-0.026189353794582718

>  <r_i_glide_evdw>  (1) 
-35.15160735368881

>  <r_i_glide_gscore>  (1) 
-5.8309237980772037

>  <r_i_glide_gscore_strain>  (1) 
0

>  <r_i_glide_hbond>  (1) 
-0.022010984967429301

>  <r_i_glide_ligand_efficiency>  (1) 
-0.27766303800367637

>  <r_i_glide_ligand_efficiency_ln>  (1) 
-1.4416841265836342

>  <r_i_glide_ligand_efficiency_sa>  (1) 
-0.76605126843577276

>  <r_i_glide_lipo>  (1) 
-2.2737742833731298

>  <r_i_glide_metal>  (1) 
-0

>  <r_i_glide_rewards>  (1) 
-1.9666312870497518

>  <r_lp_Energy>  (1) 
12.800905

>  <r_lp_tautomer_probability>  (1) 
1

>  <s_epik_Chemistry_Notes>  (1) 
This compound has an ester and may undergo hydrolysis at high or low pH. This compound contains an acetal/aminal-like group ( X-CH(R)-Y where X, Y are N, S, or O) that may be acid/base labile, releasing an aldehyde.

>  <s_epik_cmdline>  (1) 
J2VwaWtfcHl0aG9uJywgJy1waHQnLCAnMS4wJywgJy1waCcsICc3LjQnLCAnLXRuJywgJzgnLCAnLW1hJywgJzUwMCcsICctaW1hZScsICc8aW5maWxlLm1hZT4nLCAnLW9tYWUnLCAnPG91dGZpbGUubWFlPic=

>  <s_epik_input>  (1) 
UzFbQ0gyXU9jKGMxMilbY0hdW2NIXWMoW2NIXTIpQyg9TylPW0NIMl1bQ0BASF0oW0NIMl1bQ0gyXTMpW0NIMl1bQ0BASF0oW09IXSlbQ0BASF0zW0NIM10=

>  <s_glide_docking_method>  (1) 
confgen

>  <s_i_glide_gridfile>  (1) 
gpcr_drd2_6luq_protein_autoprepared_prepared

>  <s_lp_Force_Field>  (1) 
S-OPLS

>  <s_lp_Variant>  (1) 
DiffSBDD_37_num_sample_100-1

>  <s_m_source_file>  (1) 
generated__ligand_DiffSBDD_2026-05-06_prepared.sdf

>  <GenAI_Model>  (1) 
DiffSBDD

>  <Protein>  (1) 
generic_title2

$$$$
DiffSBDD_63_num_sample_100
     RDKit          3D

  0  0  0  0  0  0  0  0  0  0999 V3000
M  V30 BEGIN CTAB
M  V30 COUNTS 56 56 0 0 1
M  V30 BEGIN ATOM
M  V30 1 C 13.512259 9.769285 -5.324362 0
M  V30 2 C 7.454584 4.206810 -12.576502 0
M  V30 3 C 6.008050 7.062027 -12.290285 0
M  V30 4 C 8.830967 5.029023 -9.329982 0
M  V30 5 C 11.559369 8.345719 -9.404179 0
M  V30 6 C 7.131562 5.008220 -11.330188 0
M  V30 7 C 7.911946 5.118957 -13.729593 0 CFG=1
M  V30 8 C 12.109431 8.208230 -7.979973 0
M  V30 9 C 11.049832 8.347677 -6.905831 0
M  V30 10 C 11.834797 8.747525 -3.749971 0
M  V30 11 C 5.941698 6.728810 -13.770308 0
M  V30 12 C 10.098370 7.412279 -6.697652 0
M  V30 13 C 12.923167 8.462166 -2.716969 0
M  V30 14 C 12.696455 8.288118 -10.419330 0
M  V30 15 C 5.867615 5.842015 -11.365653 0
M  V30 16 N 8.775860 5.816897 -8.193819 0
M  V30 17 O 8.566910 4.282597 -14.673674 0
M  V30 18 C 11.143214 9.602126 -6.069019 0
M  V30 19 C 12.250661 9.398909 -5.063683 0
M  V30 20 C 6.772840 5.876885 -14.401384 0
M  V30 21 C 10.001862 6.109723 -7.469328 0
M  V30 22 C 9.494990 4.961166 -15.507203 0
M  V30 23 C 7.936146 5.015124 -10.289390 0
M  V30 24 H 13.773451 10.223901 -6.266855 0
M  V30 25 H 14.289697 9.629132 -4.613489 0
M  V30 26 H 8.254365 3.500055 -12.346067 0
M  V30 27 H 6.593543 3.604195 -12.869003 0
M  V30 28 H 5.193432 7.755255 -12.075843 0
M  V30 29 H 6.926495 7.607672 -12.072731 0
M  V30 30 H 9.711083 4.402043 -9.363242 0
M  V30 31 H 11.014603 9.284140 -9.507102 0
M  V30 32 H 10.843049 7.555186 -9.623994 0
M  V30 33 H 8.631263 5.841359 -13.337192 0
M  V30 34 H 12.633499 7.274041 -7.829390 0
M  V30 35 H 12.873745 8.969080 -7.845508 0
M  V30 36 H 11.375527 7.792793 -4.001237 0
M  V30 37 H 11.070461 9.377836 -3.293747 0
M  V30 38 H 5.166963 7.223531 -14.335754 0
M  V30 39 H 9.357576 7.568125 -5.926416 0
M  V30 40 H 12.482870 8.070684 -1.799296 0
M  V30 41 H 13.459905 9.369018 -2.455245 0
M  V30 42 H 13.617501 7.710784 -3.089667 0
M  V30 43 H 12.388804 7.769173 -11.328044 0
M  V30 44 H 13.552910 7.769309 -9.990251 0
M  V30 45 H 13.032598 9.288442 -10.691155 0
M  V30 46 H 5.621334 6.169312 -10.355047 0
M  V30 47 H 5.035362 5.214271 -11.680818 0
M  V30 48 H 8.073068 6.557675 -8.208421 0
M  V30 49 H 11.384275 10.463239 -6.691659 0
M  V30 50 H 10.234825 9.807609 -5.523172 0
M  V30 51 H 6.645018 5.705007 -15.460370 0
M  V30 52 H 10.098544 5.369276 -6.691455 0
M  V30 53 H 10.861584 5.961107 -8.119407 0
M  V30 54 H 9.918117 4.257279 -16.223434 0
M  V30 55 H 10.318038 5.369002 -14.919159 0
M  V30 56 H 9.027638 5.769245 -16.069091 0
M  V30 END ATOM
M  V30 BEGIN BOND
M  V30 1 1 6 2
M  V30 2 1 7 2
M  V30 3 1 8 5
M  V30 4 1 9 8
M  V30 5 1 11 3
M  V30 6 2 12 9
M  V30 7 1 13 10
M  V30 8 1 14 5
M  V30 9 1 15 3
M  V30 10 1 15 6
M  V30 11 1 16 4
M  V30 12 1 17 7
M  V30 13 1 18 9
M  V30 14 2 19 1
M  V30 15 1 19 10
M  V30 16 1 19 18
M  V30 17 1 20 7
M  V30 18 2 20 11
M  V30 19 1 21 12
M  V30 20 1 21 16
M  V30 21 1 22 17
M  V30 22 2 23 4
M  V30 23 2 23 6
M  V30 24 1 24 1
M  V30 25 1 25 1
M  V30 26 1 26 2
M  V30 27 1 27 2
M  V30 28 1 28 3
M  V30 29 1 29 3
M  V30 30 1 30 4
M  V30 31 1 31 5
M  V30 32 1 32 5
M  V30 33 1 7 33 CFG=1
M  V30 34 1 34 8
M  V30 35 1 35 8
M  V30 36 1 36 10
M  V30 37 1 37 10
M  V30 38 1 38 11
M  V30 39 1 39 12
M  V30 40 1 40 13
M  V30 41 1 41 13
M  V30 42 1 42 13
M  V30 43 1 43 14
M  V30 44 1 44 14
M  V30 45 1 45 14
M  V30 46 1 46 15
M  V30 47 1 47 15
M  V30 48 1 48 16
M  V30 49 1 49 18
M  V30 50 1 50 18
M  V30 51 1 51 20
M  V30 52 1 52 21
M  V30 53 1 53 21
M  V30 54 1 54 22
M  V30 55 1 55 22
M  V30 56 1 56 22
M  V30 END BOND
M  V30 END CTAB
M  END
>  <i_epik_Tot_Q>  (1) 
0

>  <i_epik_Tot_abs_Q>  (1) 
0

>  <i_i_glide_confnum>  (1) 
284

>  <i_i_glide_lignum>  (1) 
125

>  <i_i_glide_posenum>  (1) 
141

>  <i_i_glide_rotatable_bonds>  (1) 
9

>  <i_lp_mmshare_version>  (1) 
72125

>  <i_m_source_file_index>  (1) 
64

>  <i_f3d_flags>  (1) 
0

>  <num_sample>  (1) 
100

>  <b_lp_Chiralities_Consistent>  (1) 
1

>  <r_epik_Charging_Adjusted_Penalty>  (1) 
0

>  <r_epik_Ionization_Penalty>  (1) 
2.3151810028890752e-06

>  <r_epik_Ionization_Penalty_Charging>  (1) 
0

>  <r_epik_Ionization_Penalty_Neutral>  (1) 
2.3151810028890752e-06

>  <r_epik_State_Penalty>  (1) 
-0

>  <r_glide_ring_energy>  (1) 
0

>  <r_i_docking_score>  (1) 
-5.8296944409911715

>  <r_i_glide_ecoul>  (1) 
-1.5585262598818614

>  <r_i_glide_eff_state_penalty>  (1) 
-0

>  <r_i_glide_einternal>  (1) 
4.9956876376435941

>  <r_i_glide_emodel>  (1) 
-38.608697259718291

>  <r_i_glide_emodel_strain>  (1) 
2.2007370587605752

>  <r_i_glide_energy>  (1) 
-33.151562255163071

>  <r_i_glide_erotb>  (1) 
1.3082352225513891

>  <r_i_glide_esite>  (1) 
-0.094064603848901765

>  <r_i_glide_evdw>  (1) 
-31.593035995281209

>  <r_i_glide_gscore>  (1) 
-5.8296944409911715

>  <r_i_glide_gscore_strain>  (1) 
0

>  <r_i_glide_hbond>  (1) 
-0.24082701569429268

>  <r_i_glide_ligand_efficiency>  (1) 
-0.25346497569526832

>  <r_i_glide_ligand_efficiency_ln>  (1) 
-1.4096729765782963

>  <r_i_glide_ligand_efficiency_sa>  (1) 
-0.7208206749286532

>  <r_i_glide_lipo>  (1) 
-3.0133683056927918

>  <r_i_glide_metal>  (1) 
-0

>  <r_i_glide_rewards>  (1) 
-1.9762389995602347

>  <r_lp_Energy>  (1) 
-10.607941

>  <r_lp_tautomer_probability>  (1) 
1

>  <s_epik_cmdline>  (1) 
J2VwaWtfcHl0aG9uJywgJy1waHQnLCAnMS4wJywgJy1waCcsICc3LjQnLCAnLXRuJywgJzgnLCAnLW1hJywgJzUwMCcsICctaW1hZScsICc8aW5maWxlLm1hZT4nLCAnLW9tYWUnLCAnPG91dGZpbGUubWFlPic=

>  <s_epik_input>  (1) 
W0NIM11bQ0gyXUMoPVtDSDJdKVtDSDJdQyhcW0NIMl1bQ0gyXVtDSDNdKT1bQ0hdXFtDSDJdW05IXVtDSF09Qz1DMVtDSDJdW0NAQEhdKE9bQ0gzXSlbQ0hdPVtDSF1bQ0gyXVtDSDJdMQ==

>  <s_glide_docking_method>  (1) 
confgen

>  <s_i_glide_gridfile>  (1) 
gpcr_drd2_6luq_protein_autoprepared_prepared

>  <s_lp_Force_Field>  (1) 
S-OPLS

>  <s_lp_Variant>  (1) 
DiffSBDD_63_num_sample_100-1

>  <s_m_source_file>  (1) 
generated__ligand_DiffSBDD_2026-05-06_prepared.sdf

>  <GenAI_Model>  (1) 
DiffSBDD

>  <Protein>  (1) 
generic_title2

$$$$
DiffSBDD_27_num_sample_100
     RDKit          3D

  0  0  0  0  0  0  0  0  0  0999 V3000
M  V30 BEGIN CTAB
M  V30 COUNTS 57 57 0 0 1
M  V30 BEGIN ATOM
M  V30 1 C 8.312604 4.424490 -17.056976 0 CFG=2
M  V30 2 C 7.232525 5.578392 -12.582395 0
M  V30 3 N 9.739034 4.409150 -16.729148 0
M  V30 4 C 10.878073 6.431607 -7.088712 0
M  V30 5 C 7.571470 3.649462 -19.168211 0
M  V30 6 C 8.126994 3.653653 -13.997477 0
M  V30 7 N 6.503635 5.369317 -10.291700 0 CHG=1
M  V30 8 C 9.434670 6.398014 -10.136309 0
M  V30 9 C 9.914516 7.376843 -7.819577 0
M  V30 10 C 10.708061 8.477990 -8.559156 0
M  V30 11 C 7.525939 4.918361 -11.245427 0 CFG=2
M  V30 12 C 8.977530 5.044667 -10.718126 0
M  V30 13 C 7.625658 3.010661 -16.931026 0
M  V30 14 C 6.633279 1.771609 -13.481638 0
M  V30 15 C 8.138685 4.823213 -18.575789 0
M  V30 16 O 8.449018 5.880453 -19.120214 0
M  V30 17 C 7.171542 2.234152 -15.897597 0
M  V30 18 N 9.034835 6.569367 -8.715964 0 CHG=1
M  V30 19 N 7.286183 2.571509 -14.517729 0
M  V30 20 C 7.310831 2.712901 -18.298401 0
M  V30 21 C 6.477926 0.887245 -16.164748 0
M  V30 22 C 9.034328 8.064802 -6.765745 0
M  V30 23 C 7.478911 5.021247 -13.785323 0
M  V30 24 H 7.793351 5.165852 -16.465604 0
M  V30 25 H 6.786072 6.562804 -12.543133 0
M  V30 26 H 10.248528 3.775302 -17.328785 0
M  V30 27 H 10.154138 5.319715 -16.873318 0
M  V30 28 H 10.335653 5.769570 -6.415902 0
M  V30 29 H 11.434832 5.811372 -7.785941 0
M  V30 30 H 11.599042 6.980287 -6.481676 0
M  V30 31 H 7.388814 3.575643 -20.229740 0
M  V30 32 H 8.537930 3.302503 -13.052544 0
M  V30 33 H 9.021259 3.770509 -14.587146 0
M  V30 34 H 5.593360 5.284520 -10.720519 0
M  V30 35 H 6.496547 4.803626 -9.452339 0
M  V30 36 H 10.517803 6.431437 -10.204659 0
M  V30 37 H 9.062119 7.232083 -10.732731 0
M  V30 38 H 10.056722 9.096138 -9.176829 0
M  V30 39 H 11.203833 9.137857 -7.845384 0
M  V30 40 H 11.497897 8.079005 -9.194697 0
M  V30 41 H 7.330870 3.856890 -11.361954 0
M  V30 42 H 9.162502 4.265685 -9.977380 0
M  V30 43 H 9.644626 4.793404 -11.543865 0
M  V30 44 H 5.628660 1.473008 -13.783369 0
M  V30 45 H 7.216013 0.874838 -13.265681 0
M  V30 46 H 6.514821 2.322843 -12.553469 0
M  V30 47 H 8.135950 7.065870 -8.762199 0
M  V30 48 H 6.878778 1.770744 -18.597497 0
M  V30 49 H 5.435915 1.014961 -16.457081 0
M  V30 50 H 6.986798 0.361392 -16.971754 0
M  V30 51 H 6.516598 0.175256 -15.342909 0
M  V30 52 H 8.358508 7.353969 -6.291747 0
M  V30 53 H 9.635945 8.523374 -5.980402 0
M  V30 54 H 8.421929 8.854220 -7.202655 0
M  V30 55 H 7.213281 5.569141 -14.669838 0
M  V30 56 H 8.885124 5.672908 -8.278906 0
M  V30 57 H 6.634934 6.353704 -10.032971 0
M  V30 END ATOM
M  V30 BEGIN BOND
M  V30 1 1 3 1
M  V30 2 1 9 4
M  V30 3 1 10 9
M  V30 4 1 11 2
M  V30 5 1 11 7
M  V30 6 1 12 8
M  V30 7 1 12 11
M  V30 8 1 13 1
M  V30 9 1 15 1
M  V30 10 1 15 5
M  V30 11 2 16 15
M  V30 12 2 17 13
M  V30 13 1 18 8
M  V30 14 1 18 9
M  V30 15 1 19 6
M  V30 16 1 19 14
M  V30 17 1 19 17
M  V30 18 2 20 5
M  V30 19 1 20 13
M  V30 20 1 21 17
M  V30 21 1 22 9
M  V30 22 2 23 2
M  V30 23 1 23 6
M  V30 24 1 1 24 CFG=1
M  V30 25 1 25 2
M  V30 26 1 26 3
M  V30 27 1 27 3
M  V30 28 1 28 4
M  V30 29 1 29 4
M  V30 30 1 30 4
M  V30 31 1 31 5
M  V30 32 1 32 6
M  V30 33 1 33 6
M  V30 34 1 34 7
M  V30 35 1 35 7
M  V30 36 1 36 8
M  V30 37 1 37 8
M  V30 38 1 38 10
M  V30 39 1 39 10
M  V30 40 1 40 10
M  V30 41 1 11 41 CFG=3
M  V30 42 1 42 12
M  V30 43 1 43 12
M  V30 44 1 44 14
M  V30 45 1 45 14
M  V30 46 1 46 14
M  V30 47 1 47 18
M  V30 48 1 48 20
M  V30 49 1 49 21
M  V30 50 1 50 21
M  V30 51 1 51 21
M  V30 52 1 52 22
M  V30 53 1 53 22
M  V30 54 1 54 22
M  V30 55 1 55 23
M  V30 56 1 56 18
M  V30 57 1 57 7
M  V30 END BOND
M  V30 END CTAB
M  END
>  <i_epik_Tot_Q>  (1) 
2

>  <i_epik_Tot_abs_Q>  (1) 
2

>  <i_i_glide_confnum>  (1) 
272

>  <i_i_glide_lignum>  (1) 
46

>  <i_i_glide_posenum>  (1) 
268

>  <i_i_glide_rotatable_bonds>  (1) 
8

>  <i_lp_mmshare_version>  (1) 
72125

>  <i_m_source_file_index>  (1) 
28

>  <i_f3d_flags>  (1) 
0

>  <num_sample>  (1) 
100

>  <b_lp_Chiralities_Consistent>  (1) 
1

>  <r_epik_Charging_Adjusted_Penalty>  (1) 
0.47954930221194114

>  <r_epik_Ionization_Penalty>  (1) 
0.082650424812652987

>  <r_epik_Ionization_Penalty_Charging>  (1) 
0.068869463259337155

>  <r_epik_Ionization_Penalty_Neutral>  (1) 
0.013780961553315832

>  <r_epik_State_Penalty>  (1) 
0.41067983895260396

>  <r_glide_ring_energy>  (1) 
0

>  <r_i_docking_score>  (1) 
-5.8238223062273677

>  <r_i_glide_ecoul>  (1) 
-13.232087458219167

>  <r_i_glide_eff_state_penalty>  (1) 
0.41067983895260396

>  <r_i_glide_einternal>  (1) 
12.206847660335493

>  <r_i_glide_emodel>  (1) 
-49.757831710388032

>  <r_i_glide_emodel_strain>  (1) 
1.7280149684847501

>  <r_i_glide_energy>  (1) 
-34.131593690941671

>  <r_i_glide_erotb>  (1) 
0.88107071462136088

>  <r_i_glide_esite>  (1) 
-0.20000000000000001

>  <r_i_glide_evdw>  (1) 
-20.899506232722501

>  <r_i_glide_gscore>  (1) 
-6.234502145179972

>  <r_i_glide_gscore_strain>  (1) 
0

>  <r_i_glide_hbond>  (1) 
-0.43099941938453612

>  <r_i_glide_ligand_efficiency>  (1) 
-0.25320966548814644

>  <r_i_glide_ligand_efficiency_ln>  (1) 
-1.4082530411468341

>  <r_i_glide_ligand_efficiency_sa>  (1) 
-0.72009460666100022

>  <r_i_glide_lipo>  (1) 
-1.1311990848376727

>  <r_i_glide_metal>  (1) 
-0

>  <r_i_glide_rewards>  (1) 
-2.3235859252101232

>  <r_lp_Energy>  (1) 
29.545608999999999

>  <r_lp_tautomer_probability>  (1) 
0.5

>  <s_epik_cmdline>  (1) 
J2VwaWtfcHl0aG9uJywgJy1waHQnLCAnMS4wJywgJy1waCcsICc3LjQnLCAnLXRuJywgJzgnLCAnLW1hJywgJzUwMCcsICctaW1hZScsICc8aW5maWxlLm1hZT4nLCAnLW9tYWUnLCAnPG91dGZpbGUubWFlPic=

>  <s_epik_input>  (1) 
Tz1DMVtDSF09W0NIXUMoXFtDQEhdMVtOSDJdKT1DKFtDSDNdKVxOKFtDSDNdKVtDSDJdL1tDSF09W0NIXVxbQ0BIXShbTkgyXSlbQ0gyXVtDSDJdW05IXUMoW0NIM10pKFtDSDNdKVtDSDNd

>  <s_glide_docking_method>  (1) 
confgen

>  <s_i_glide_gridfile>  (1) 
gpcr_drd2_6luq_protein_autoprepared_prepared

>  <s_lp_Force_Field>  (1) 
S-OPLS

>  <s_lp_Variant>  (1) 
DiffSBDD_27_num_sample_100-4

>  <s_m_source_file>  (1) 
generated__ligand_DiffSBDD_2026-05-06_prepared.sdf

>  <GenAI_Model>  (1) 
DiffSBDD

>  <Protein>  (1) 
generic_title2

$$$$
DiffSBDD_81_num_sample_100
     RDKit          3D

  0  0  0  0  0  0  0  0  0  0999 V3000
M  V30 BEGIN CTAB
M  V30 COUNTS 65 67 0 0 1
M  V30 BEGIN ATOM
M  V30 1 C 9.798998 6.350576 -9.918406 0 CFG=1
M  V30 2 C 11.047749 8.252323 -5.524160 0 CFG=1
M  V30 3 C 4.565615 6.697651 -18.519539 0
M  V30 4 C 7.540455 4.834715 -12.764308 0 CFG=1
M  V30 5 O 8.891861 6.169296 -6.634388 0
M  V30 6 O 11.834908 9.059301 -8.977072 0
M  V30 7 C 7.891258 4.787852 -15.211645 0
M  V30 8 N 7.244393 5.359636 -14.129495 0
M  V30 9 C 11.113473 7.058687 -6.509843 0
M  V30 10 C 9.756489 6.818052 -7.199047 0
M  V30 11 C 11.221734 6.567478 -2.394532 0
M  V30 12 S 5.839974 5.555325 -18.686276 0
M  V30 13 C 12.207843 6.913582 -3.515423 0
M  V30 14 C 6.124048 7.530278 -15.240836 0
M  V30 15 C 8.922907 5.368883 -12.231535 0 CFG=2
M  V30 16 C 6.503458 5.995864 -17.141748 0
M  V30 17 C 6.200561 6.422662 -14.194053 0
M  V30 18 O 8.634781 3.826634 -15.069752 0
M  V30 19 C 11.546789 8.083780 -9.706034 0
M  V30 20 N 10.466709 7.359774 -9.409347 0
M  V30 21 C 9.505712 7.417552 -8.558780 0 CFG=1
M  V30 22 C 6.358998 4.832452 -11.759548 0
M  V30 23 O 9.700711 4.258785 -11.848032 0
M  V30 24 C 7.739171 5.381209 -16.630782 0
M  V30 25 O 9.244185 7.696570 -11.892434 0
M  V30 26 O 12.234828 7.769566 -10.691726 0 CHG=-1
M  V30 27 C 8.909907 6.521484 -11.168029 0 CFG=2
M  V30 28 C 4.649192 7.368941 -17.334423 0
M  V30 29 C 11.988829 8.240143 -4.284797 0
M  V30 30 N 11.279794 9.495014 -6.282615 0 CHG=1
M  V30 31 C 8.272439 8.716459 -11.825525 0
M  V30 32 C 5.773299 6.969273 -16.547144 0
M  V30 33 H 10.060350 5.340052 -9.620636 0
M  V30 34 H 10.033959 8.298014 -5.139975 0
M  V30 35 H 3.834839 6.811036 -19.294139 0
M  V30 36 H 7.662409 3.758640 -12.894070 0
M  V30 37 H 11.310915 6.131359 -5.979619 0
M  V30 38 H 11.931597 7.167317 -7.218020 0
M  V30 39 H 11.636866 5.769301 -1.777495 0
M  V30 40 H 11.035029 7.414991 -1.733325 0
M  V30 41 H 10.285183 6.170267 -2.793644 0
M  V30 42 H 12.234662 6.065582 -4.191276 0
M  V30 43 H 13.196774 6.968919 -3.056196 0
M  V30 44 H 7.042385 8.109392 -15.274335 0
M  V30 45 H 5.340560 8.220423 -14.938074 0
M  V30 46 H 9.498639 5.743509 -13.079667 0
M  V30 47 H 6.243610 6.969158 -13.257619 0
M  V30 48 H 5.239330 5.908895 -14.172576 0
M  V30 49 H 8.955159 8.349086 -8.622850 0
M  V30 50 H 6.646316 4.321500 -10.838766 0
M  V30 51 H 6.005712 5.820014 -11.466146 0
M  V30 52 H 5.506594 4.293688 -12.170752 0
M  V30 53 H 10.281702 4.043535 -12.568723 0
M  V30 54 H 8.552794 6.087773 -16.755223 0
M  V30 55 H 8.005505 4.569838 -17.310577 0
M  V30 56 H 7.905926 6.569455 -10.767430 0
M  V30 57 H 3.959140 8.132088 -17.009685 0
M  V30 58 H 12.969149 8.611829 -4.581781 0
M  V30 59 H 11.645269 8.996651 -3.578666 0
M  V30 60 H 12.217016 9.481115 -6.665993 0
M  V30 61 H 10.665184 9.528901 -7.086794 0
M  V30 62 H 8.438151 9.369182 -12.676370 0
M  V30 63 H 8.367593 9.293463 -10.905661 0
M  V30 64 H 7.253958 8.339506 -11.895706 0
M  V30 65 H 11.151162 10.314003 -5.708308 0
M  V30 END ATOM
M  V30 BEGIN BOND
M  V30 1 1 8 4
M  V30 2 1 8 7
M  V30 3 1 9 2
M  V30 4 2 10 5
M  V30 5 1 10 9
M  V30 6 1 12 3
M  V30 7 1 13 11
M  V30 8 1 15 4
M  V30 9 1 16 12
M  V30 10 1 17 8
M  V30 11 1 17 14
M  V30 12 2 18 7
M  V30 13 2 19 6
M  V30 14 1 20 1
M  V30 15 1 20 19
M  V30 16 1 21 1
M  V30 17 1 21 10
M  V30 18 1 21 20
M  V30 19 1 22 4
M  V30 20 1 23 15
M  V30 21 1 24 7
M  V30 22 1 24 16
M  V30 23 1 26 19
M  V30 24 1 27 1
M  V30 25 1 27 15
M  V30 26 1 27 25
M  V30 27 2 28 3
M  V30 28 1 29 2
M  V30 29 1 29 13
M  V30 30 1 30 2
M  V30 31 1 31 25
M  V30 32 1 32 14
M  V30 33 2 32 16
M  V30 34 1 32 28
M  V30 35 1 1 33 CFG=1
M  V30 36 1 2 34 CFG=1
M  V30 37 1 35 3
M  V30 38 1 4 36 CFG=3
M  V30 39 1 37 9
M  V30 40 1 38 9
M  V30 41 1 39 11
M  V30 42 1 40 11
M  V30 43 1 41 11
M  V30 44 1 42 13
M  V30 45 1 43 13
M  V30 46 1 44 14
M  V30 47 1 45 14
M  V30 48 1 15 46 CFG=3
M  V30 49 1 47 17
M  V30 50 1 48 17
M  V30 51 1 21 49 CFG=1
M  V30 52 1 50 22
M  V30 53 1 51 22
M  V30 54 1 52 22
M  V30 55 1 53 23
M  V30 56 1 54 24
M  V30 57 1 55 24
M  V30 58 1 27 56 CFG=1
M  V30 59 1 57 28
M  V30 60 1 58 29
M  V30 61 1 59 29
M  V30 62 1 60 30
M  V30 63 1 61 30
M  V30 64 1 62 31
M  V30 65 1 63 31
M  V30 66 1 64 31
M  V30 67 1 65 30
M  V30 END BOND
M  V30 END CTAB
M  END
>  <i_epik_Tot_Q>  (1) 
0

>  <i_epik_Tot_abs_Q>  (1) 
2

>  <i_i_glide_confnum>  (1) 
691

>  <i_i_glide_lignum>  (1) 
166

>  <i_i_glide_posenum>  (1) 
48

>  <i_i_glide_rotatable_bonds>  (1) 
12

>  <i_lp_mmshare_version>  (1) 
72125

>  <i_m_source_file_index>  (1) 
82

>  <i_f3d_flags>  (1) 
0

>  <num_sample>  (1) 
100

>  <b_lp_Chiralities_Consistent>  (1) 
1

>  <r_epik_Charging_Adjusted_Penalty>  (1) 
0.020538690311271313

>  <r_epik_Ionization_Penalty>  (1) 
0.011193014289855681

>  <r_epik_Ionization_Penalty_Charging>  (1) 
0.011192617808242357

>  <r_epik_Ionization_Penalty_Neutral>  (1) 
3.9648161332337345e-07

>  <r_epik_State_Penalty>  (1) 
0.0093460725030289557

>  <r_glide_ring_energy>  (1) 
0

>  <r_i_docking_score>  (1) 
-5.8200225832990977

>  <r_i_glide_ecoul>  (1) 
-1.9464847718932632

>  <r_i_glide_eff_state_penalty>  (1) 
0.0093460725030289557

>  <r_i_glide_einternal>  (1) 
27.468082828430912

>  <r_i_glide_emodel>  (1) 
-31.104206861169445

>  <r_i_glide_emodel_strain>  (1) 
6.6046844272020166

>  <r_i_glide_energy>  (1) 
-39.130049233921625

>  <r_i_glide_erotb>  (1) 
0.64619886402953775

>  <r_i_glide_esite>  (1) 
-0.057017012340162321

>  <r_i_glide_evdw>  (1) 
-37.183564462028365

>  <r_i_glide_gscore>  (1) 
-5.8293686558021269

>  <r_i_glide_gscore_strain>  (1) 
0.65117110680050416

>  <r_i_glide_hbond>  (1) 
-0.19874668231653958

>  <r_i_glide_ligand_efficiency>  (1) 
-0.1818757057280968

>  <r_i_glide_ligand_efficiency_ln>  (1) 
-1.3032617042244528

>  <r_i_glide_ligand_efficiency_sa>  (1) 
-0.5774193732004792

>  <r_i_glide_lipo>  (1) 
-3.0845645141657596

>  <r_i_glide_metal>  (1) 
-0

>  <r_i_glide_rewards>  (1) 
-1.6352594789242998

>  <r_lp_Energy>  (1) 
22.366004999999998

>  <r_lp_tautomer_probability>  (1) 
0.99999996000000102

>  <s_epik_cmdline>  (1) 
J2VwaWtfcHl0aG9uJywgJy1waHQnLCAnMS4wJywgJy1waCcsICc3LjQnLCAnLXRuJywgJzgnLCAnLW1hJywgJzUwMCcsICctaW1hZScsICc8aW5maWxlLm1hZT4nLCAnLW9tYWUnLCAnPG91dGZpbGUubWFlPic=

>  <s_epik_input>  (1) 
W0NIM11bQ0gyXVtDSDJdW0NAQEhdKFtOSDJdKVtDSDJdQyg9TylbQ0BIXTFOKEMoPU8pW09IXSlbQ0BASF0xW0NAQEhdKE9bQ0gzXSlbQ0BASF0oW09IXSlbQ0BASF0oW0NIM10pTihDKD1PKVtDSDJdMilbQ0gyXVtDSDJdYyhjMjMpW2NIXVtjSF1zMw==

>  <s_glide_docking_method>  (1) 
confgen

>  <s_i_glide_gridfile>  (1) 
gpcr_drd2_6luq_protein_autoprepared_prepared

>  <s_lp_Force_Field>  (1) 
S-OPLS

>  <s_lp_Variant>  (1) 
DiffSBDD_81_num_sample_100-1

>  <s_m_source_file>  (1) 
generated__ligand_DiffSBDD_2026-05-06_prepared.sdf

>  <GenAI_Model>  (1) 
DiffSBDD

>  <Protein>  (1) 
generic_title2

$$$$
DiffSBDD_31_num_sample_100
     RDKit          3D

  0  0  0  0  0  0  0  0  0  0999 V3000
M  V30 BEGIN CTAB
M  V30 COUNTS 50 53 0 0 1
M  V30 BEGIN ATOM
M  V30 1 C 9.365794 6.319230 -12.503822 0
M  V30 2 C 9.652703 6.705939 -10.005332 0
M  V30 3 C 10.375240 7.528126 -7.851117 0
M  V30 4 O 12.325569 7.686499 -2.548790 0
M  V30 5 C 7.974675 1.221256 -14.663337 0
M  V30 6 C 7.570617 2.299794 -13.648331 0 CFG=1
M  V30 7 C 11.607257 8.722564 -6.020272 0
M  V30 8 N 9.253165 5.929301 -11.100788 0
M  V30 9 C 10.849457 7.618180 -6.463689 0
M  V30 10 O 12.852415 9.769301 -4.259762 0
M  V30 11 S 9.434838 6.134051 -8.370597 0
M  V30 12 C 12.098609 8.740838 -4.691666 0
M  V30 13 C 8.001366 6.264979 -13.232762 0
M  V30 14 C 7.957031 3.769268 -14.024109 0 CFG=1
M  V30 15 C 8.198316 2.969614 -16.470558 0 CFG=1
M  V30 16 N 10.630323 8.402495 -8.835550 0
M  V30 17 Cl 7.739630 3.383681 -18.142420 0
M  V30 18 C 8.663055 4.592863 -11.007917 0
M  V30 19 C 7.683674 4.060294 -15.519847 0
M  V30 20 N 10.234794 7.913499 -10.087441 0
M  V30 21 C 11.834843 7.669430 -3.823740 0
M  V30 22 C 10.568851 6.569297 -5.572738 0
M  V30 23 C 11.066229 6.585807 -4.265244 0
M  V30 24 C 7.313507 4.882450 -13.121917 0
M  V30 25 C 7.619671 1.597831 -16.107425 0
M  V30 26 C 7.258094 4.569305 -11.617661 0
M  V30 27 Cl 5.834840 2.101519 -13.448782 0
M  V30 28 H 9.766952 7.330064 -12.575495 0
M  V30 29 H 10.091078 5.670797 -12.996565 0
M  V30 30 H 12.113855 6.901978 -2.065506 0
M  V30 31 H 7.510833 0.267687 -14.404860 0
M  V30 32 H 9.034837 1.039371 -14.576859 0
M  V30 33 H 8.016535 2.040728 -12.689197 0
M  V30 34 H 11.830744 9.537383 -6.693651 0
M  V30 35 H 13.082984 9.630090 -3.350406 0
M  V30 36 H 7.349233 7.017439 -12.786049 0
M  V30 37 H 8.118848 6.569032 -14.270862 0
M  V30 38 H 9.034844 3.826199 -13.891668 0
M  V30 39 H 9.287580 2.935214 -16.445865 0
M  V30 40 H 9.315383 3.874922 -11.506445 0
M  V30 41 H 8.595333 4.257131 -9.976194 0
M  V30 42 H 6.615056 4.184196 -15.669440 0
M  V30 43 H 8.137928 5.006200 -15.811534 0
M  V30 44 H 9.980221 5.742751 -5.896964 0
M  V30 45 H 10.851960 5.769305 -3.597068 0
M  V30 46 H 6.280037 5.002520 -13.450656 0
M  V30 47 H 6.535838 1.609818 -16.231328 0
M  V30 48 H 7.998983 0.836819 -16.789775 0
M  V30 49 H 6.644483 5.316440 -11.110060 0
M  V30 50 H 6.757719 3.625649 -11.425323 0
M  V30 END ATOM
M  V30 BEGIN BOND
M  V30 1 1 6 5
M  V30 2 1 8 1
M  V30 3 1 8 2
M  V30 4 1 9 3
M  V30 5 2 9 7
M  V30 6 1 11 2
M  V30 7 1 11 3
M  V30 8 1 12 7
M  V30 9 1 12 10
M  V30 10 1 13 1
M  V30 11 1 14 6
M  V30 12 2 16 3
M  V30 13 1 17 15
M  V30 14 1 18 8
M  V30 15 1 19 14
M  V30 16 1 19 15
M  V30 17 2 20 2
M  V30 18 1 20 16
M  V30 19 1 21 4
M  V30 20 2 21 12
M  V30 21 1 22 9
M  V30 22 1 23 21
M  V30 23 2 23 22
M  V30 24 1 24 13
M  V30 25 1 24 14
M  V30 26 1 25 5
M  V30 27 1 25 15
M  V30 28 1 26 18
M  V30 29 1 26 24
M  V30 30 1 27 6
M  V30 31 1 28 1
M  V30 32 1 29 1
M  V30 33 1 30 4
M  V30 34 1 31 5
M  V30 35 1 32 5
M  V30 36 1 6 33 CFG=1
M  V30 37 1 34 7
M  V30 38 1 35 10
M  V30 39 1 36 13
M  V30 40 1 37 13
M  V30 41 1 14 38 CFG=3
M  V30 42 1 15 39 CFG=3
M  V30 43 1 40 18
M  V30 44 1 41 18
M  V30 45 1 42 19
M  V30 46 1 43 19
M  V30 47 1 44 22
M  V30 48 1 45 23
M  V30 49 1 46 24
M  V30 50 1 47 25
M  V30 51 1 48 25
M  V30 52 1 49 26
M  V30 53 1 50 26
M  V30 END BOND
M  V30 END CTAB
M  END
>  <i_epik_Tot_Q>  (1) 
0

>  <i_epik_Tot_abs_Q>  (1) 
0

>  <i_i_glide_confnum>  (1) 
18

>  <i_i_glide_lignum>  (1) 
57

>  <i_i_glide_posenum>  (1) 
367

>  <i_i_glide_rotatable_bonds>  (1) 
5

>  <i_lp_mmshare_version>  (1) 
72125

>  <i_m_source_file_index>  (1) 
32

>  <i_f3d_flags>  (1) 
0

>  <num_sample>  (1) 
100

>  <b_lp_Chiralities_Consistent>  (1) 
1

>  <r_epik_Charging_Adjusted_Penalty>  (1) 
0.030402742638392096

>  <r_epik_Ionization_Penalty>  (1) 
0.030794834145842404

>  <r_epik_Ionization_Penalty_Charging>  (1) 
0

>  <r_epik_Ionization_Penalty_Neutral>  (1) 
0.030794834145842404

>  <r_epik_State_Penalty>  (1) 
0.030402742638392096

>  <r_glide_ring_energy>  (1) 
1.8967887167309052

>  <r_i_docking_score>  (1) 
-5.8169113386341049

>  <r_i_glide_ecoul>  (1) 
-3.3700461540652236

>  <r_i_glide_eff_state_penalty>  (1) 
0.030402742638392096

>  <r_i_glide_einternal>  (1) 
8.9011137886268408

>  <r_i_glide_emodel>  (1) 
-40.639437118800089

>  <r_i_glide_emodel_strain>  (1) 
0.033240920267139984

>  <r_i_glide_energy>  (1) 
-36.078214211026115

>  <r_i_glide_erotb>  (1) 
0.32471647886420552

>  <r_i_glide_esite>  (1) 
-0.10423988421759814

>  <r_i_glide_evdw>  (1) 
-32.708168056960893

>  <r_i_glide_gscore>  (1) 
-5.8473140812724971

>  <r_i_glide_gscore_strain>  (1) 
0

>  <r_i_glide_hbond>  (1) 
0

>  <r_i_glide_ligand_efficiency>  (1) 
-0.21544116069015204

>  <r_i_glide_ligand_efficiency_ln>  (1) 
-1.3540810603556663

>  <r_i_glide_ligand_efficiency_sa>  (1) 
-0.6463234820704562

>  <r_i_glide_lipo>  (1) 
-2.5606140156896653

>  <r_i_glide_metal>  (1) 
-0

>  <r_i_glide_rewards>  (1) 
-1.3662613342716112

>  <r_lp_Energy>  (1) 
32.143867

>  <r_lp_tautomer_probability>  (1) 
0.99999999999977596

>  <s_epik_cmdline>  (1) 
J2VwaWtfcHl0aG9uJywgJy1waHQnLCAnMS4wJywgJy1waCcsICc3LjQnLCAnLXRuJywgJzgnLCAnLW1hJywgJzUwMCcsICctaW1hZScsICc8aW5maWxlLm1hZT4nLCAnLW9tYWUnLCAnPG91dGZpbGUubWFlPic=

>  <s_epik_input>  (1) 
Q2xbQ0BIXTFbQ0gyXVtDSDJdW0NASF0oQ2wpW0NIMl1bQ0BIXTFbQ0hdKFtDSDJdW0NIMl0yKVtDSDJdW0NIMl1OMmMzc2Mobm4zKS1jNFtjSF1jKFtPSF0pYyhbT0hdKVtjSF1bY0hdNA==

>  <s_glide_docking_method>  (1) 
confgen

>  <s_i_glide_gridfile>  (1) 
gpcr_drd2_6luq_protein_autoprepared_prepared

>  <s_lp_Force_Field>  (1) 
S-OPLS

>  <s_lp_Variant>  (1) 
DiffSBDD_31_num_sample_100-2

>  <s_m_source_file>  (1) 
generated__ligand_DiffSBDD_2026-05-06_prepared.sdf

>  <GenAI_Model>  (1) 
DiffSBDD

>  <Protein>  (1) 
generic_title2

$$$$
DiffSBDD_25_num_sample_100
     RDKit          3D

  0  0  0  0  0  0  0  0  0  0999 V3000
M  V30 BEGIN CTAB
M  V30 COUNTS 66 69 0 0 1
M  V30 BEGIN ATOM
M  V30 1 C 5.927557 -0.563197 -11.496860 0
M  V30 2 C 11.396369 7.606768 -8.780054 0
M  V30 3 C 9.602220 5.610285 -9.046497 0
M  V30 4 C 7.285221 5.252652 -13.197592 0 CFG=2
M  V30 5 C 11.674995 7.162233 -5.023399 0
M  V30 6 O 10.380908 8.969233 -5.891640 0
M  V30 7 C 9.563845 7.827701 -5.923419 0 CFG=1
M  V30 8 C 11.702685 8.615159 -5.564899 0 CFG=2
M  V30 9 F 11.885893 6.997419 -9.857810 0
M  V30 10 C 12.525862 8.969292 -6.814021 0
M  V30 11 C 7.193957 2.200629 -14.686915 0
M  V30 12 C 9.227124 7.399976 -7.343310 0
M  V30 13 F 10.916155 8.789993 -9.157347 0
M  V30 14 C 7.939305 7.360700 -11.887183 0 CFG=1
M  V30 15 N 7.307694 0.829461 -14.542208 0
M  V30 16 C 10.320867 6.661037 -8.147640 0 CFG=2
M  V30 17 O 5.862795 6.371424 -11.494552 0
M  V30 18 C 5.016516 4.640926 -13.891632 0
M  V30 19 C 9.139820 7.121545 -11.001317 0
M  V30 20 F 8.234842 7.796810 -13.091717 0
M  V30 21 C 6.231633 4.123350 -13.165734 0 CFG=1
M  V30 22 C 7.780512 5.209955 -10.686099 0
M  V30 23 C 6.763971 0.619211 -13.341991 0
M  V30 24 C 8.722663 4.842020 -13.633949 0
M  V30 25 C 10.234830 6.733793 -5.091372 0
M  V30 26 O 6.324605 1.735813 -12.699314 0
M  V30 27 O 8.844838 4.902225 -15.041412 0
M  V30 28 C 12.640052 7.897722 -7.914083 0
M  V30 29 N 8.634850 6.169291 -9.995434 0 CFG=1 CHG=1
M  V30 30 C 6.614820 2.737478 -13.569528 0
M  V30 31 O 6.634831 -0.564818 -12.727813 0
M  V30 32 C 7.194363 6.023184 -11.855314 0 CFG=1
M  V30 33 H 6.234903 -1.430711 -10.924287 0
M  V30 34 H 6.131606 0.289989 -10.853854 0
M  V30 35 H 4.854353 -0.630723 -11.675042 0
M  V30 36 H 9.049707 4.937222 -8.387481 0
M  V30 37 H 10.234842 4.941166 -9.598151 0
M  V30 38 H 6.972994 5.980398 -13.948516 0
M  V30 39 H 12.234835 6.433827 -5.600518 0
M  V30 40 H 12.050988 7.114069 -4.001405 0
M  V30 41 H 8.634959 8.169266 -5.496163 0
M  V30 42 H 12.004781 9.286996 -4.761393 0
M  V30 43 H 13.527287 9.282898 -6.515848 0
M  V30 44 H 12.080317 9.857477 -7.246751 0
M  V30 45 H 7.533833 2.692506 -15.585135 0
M  V30 46 H 8.852033 8.261383 -7.894943 0
M  V30 47 H 8.374035 6.728568 -7.225142 0
M  V30 48 H 7.339877 8.180295 -11.491671 0
M  V30 49 H 10.894056 6.010337 -7.494067 0
M  V30 50 H 5.909501 6.929211 -10.723233 0
M  V30 51 H 4.208255 3.917169 -13.842319 0
M  V30 52 H 4.636392 5.574464 -13.491670 0
M  V30 53 H 5.301098 4.882269 -14.916992 0
M  V30 54 H 9.417826 8.076288 -10.580364 0
M  V30 55 H 9.991614 6.709571 -11.541487 0
M  V30 56 H 5.892944 3.989126 -12.138505 0
M  V30 57 H 7.022260 4.806058 -10.011042 0
M  V30 58 H 8.384293 4.369889 -11.032075 0
M  V30 59 H 9.010906 3.855639 -13.268881 0
M  V30 60 H 9.476492 5.527889 -13.259734 0
M  V30 61 H 9.834847 6.569272 -4.097468 0
M  V30 62 H 10.118446 5.769288 -5.559633 0
M  V30 63 H 8.146484 4.405166 -15.436833 0
M  V30 64 H 13.022065 6.976811 -7.491647 0
M  V30 65 H 13.428416 8.243957 -8.584110 0
M  V30 66 H 7.972372 6.766564 -9.485403 0
M  V30 END ATOM
M  V30 BEGIN BOND
M  V30 1 1 7 6
M  V30 2 1 8 5
M  V30 3 1 8 6
M  V30 4 1 9 2
M  V30 5 1 10 8
M  V30 6 1 12 7
M  V30 7 1 13 2
M  V30 8 1 15 11
M  V30 9 1 16 2
M  V30 10 1 16 3
M  V30 11 1 16 12
M  V30 12 1 19 14
M  V30 13 1 20 14
M  V30 14 1 21 4
M  V30 15 1 21 18
M  V30 16 2 23 15
M  V30 17 1 24 4
M  V30 18 1 25 5
M  V30 19 1 25 7
M  V30 20 1 26 23
M  V30 21 1 27 24
M  V30 22 1 28 2
M  V30 23 1 28 10
M  V30 24 1 29 3
M  V30 25 1 29 19
M  V30 26 1 29 22
M  V30 27 2 30 11
M  V30 28 1 30 21
M  V30 29 1 30 26
M  V30 30 1 31 1
M  V30 31 1 31 23
M  V30 32 1 32 4
M  V30 33 1 32 14
M  V30 34 1 32 17 CFG=1
M  V30 35 1 32 22
M  V30 36 1 33 1
M  V30 37 1 34 1
M  V30 38 1 35 1
M  V30 39 1 36 3
M  V30 40 1 37 3
M  V30 41 1 4 38 CFG=3
M  V30 42 1 39 5
M  V30 43 1 40 5
M  V30 44 1 7 41 CFG=1
M  V30 45 1 8 42 CFG=1
M  V30 46 1 43 10
M  V30 47 1 44 10
M  V30 48 1 45 11
M  V30 49 1 46 12
M  V30 50 1 47 12
M  V30 51 1 14 48 CFG=1
M  V30 52 1 16 49 CFG=1
M  V30 53 1 50 17
M  V30 54 1 51 18
M  V30 55 1 52 18
M  V30 56 1 53 18
M  V30 57 1 54 19
M  V30 58 1 55 19
M  V30 59 1 21 56 CFG=1
M  V30 60 1 57 22
M  V30 61 1 58 22
M  V30 62 1 59 24
M  V30 63 1 60 24
M  V30 64 1 61 25
M  V30 65 1 62 25
M  V30 66 1 63 27
M  V30 67 1 64 28
M  V30 68 1 65 28
M  V30 69 1 29 66 CFG=1
M  V30 END BOND
M  V30 END CTAB
M  END
>  <i_epik_Tot_Q>  (1) 
1

>  <i_epik_Tot_abs_Q>  (1) 
1

>  <i_i_glide_confnum>  (1) 
387

>  <i_i_glide_lignum>  (1) 
39

>  <i_i_glide_posenum>  (1) 
244

>  <i_i_glide_rotatable_bonds>  (1) 
9

>  <i_lp_mmshare_version>  (1) 
72125

>  <i_m_source_file_index>  (1) 
26

>  <i_f3d_flags>  (1) 
0

>  <num_sample>  (1) 
100

>  <b_lp_Chiralities_Consistent>  (1) 
1

>  <r_epik_Charging_Adjusted_Penalty>  (1) 
0.21543991348680042

>  <r_epik_Ionization_Penalty>  (1) 
0.10772808098718631

>  <r_epik_Ionization_Penalty_Charging>  (1) 
0.10771995674340021

>  <r_epik_Ionization_Penalty_Neutral>  (1) 
8.124243786105112e-06

>  <r_epik_State_Penalty>  (1) 
0.10771995674340022

>  <r_glide_ring_energy>  (1) 
0

>  <r_i_docking_score>  (1) 
-5.7929616863881899

>  <r_i_glide_ecoul>  (1) 
-11.971485209374503

>  <r_i_glide_eff_state_penalty>  (1) 
0.10771995674340022

>  <r_i_glide_einternal>  (1) 
22.767756182698591

>  <r_i_glide_emodel>  (1) 
-30.437704470366185

>  <r_i_glide_emodel_strain>  (1) 
2.9872343235059731

>  <r_i_glide_energy>  (1) 
-29.809387163734339

>  <r_i_glide_erotb>  (1) 
0.56277696399540145

>  <r_i_glide_esite>  (1) 
-0.10404473442635163

>  <r_i_glide_evdw>  (1) 
-17.837901954359836

>  <r_i_glide_gscore>  (1) 
-5.9006816431315903

>  <r_i_glide_gscore_strain>  (1) 
0

>  <r_i_glide_hbond>  (1) 
-0.34400791726025948

>  <r_i_glide_ligand_efficiency>  (1) 
-0.18103005269963093

>  <r_i_glide_ligand_efficiency_ln>  (1) 
-1.2972020317539106

>  <r_i_glide_ligand_efficiency_sa>  (1) 
-0.57473459218650558

>  <r_i_glide_lipo>  (1) 
-1.9306593350127692

>  <r_i_glide_metal>  (1) 
-0

>  <r_i_glide_rewards>  (1) 
-1.3971287413034437

>  <r_lp_Energy>  (1) 
39.383341000000001

>  <s_epik_cmdline>  (1) 
J2VwaWtfcHl0aG9uJywgJy1waHQnLCAnMS4wJywgJy1waCcsICc3LjQnLCAnLXRuJywgJzgnLCAnLW1hJywgJzUwMCcsICctaW1hZScsICc8aW5maWxlLm1hZT4nLCAnLW9tYWUnLCAnPG91dGZpbGUubWFlPic=

>  <s_epik_input>  (1) 
W0NIM11PYzFuW2NIXWMobzEpW0NASF0oW0NIM10pW0NASF0oW0NIMl1bT0hdKVtDQF0yKFtPSF0pW0NASF0oRilbQ0gyXU4oW0NIMl0yKVtDSDJdW0NASF0oW0NIMl0zKUMoRikoRilbQ0gyXVtDSDJdW0NASF0oW0NIMl1bQ0gyXTQpT1tDQEBIXTM0

>  <s_glide_docking_method>  (1) 
confgen

>  <s_i_glide_gridfile>  (1) 
gpcr_drd2_6luq_protein_autoprepared_prepared

>  <s_lp_Force_Field>  (1) 
S-OPLS

>  <s_lp_Variant>  (1) 
DiffSBDD_25_num_sample_100-2

>  <s_m_source_file>  (1) 
generated__ligand_DiffSBDD_2026-05-06_prepared.sdf

>  <GenAI_Model>  (1) 
DiffSBDD

>  <Protein>  (1) 
generic_title2

$$$$
DiffSBDD_27_num_sample_100
     RDKit          3D

  0  0  0  0  0  0  0  0  0  0999 V3000
M  V30 BEGIN CTAB
M  V30 COUNTS 57 57 0 0 1
M  V30 BEGIN ATOM
M  V30 1 C 10.910866 8.341343 -6.447088 0 CFG=2
M  V30 2 C 8.251879 5.722788 -11.896241 0
M  V30 3 N 10.765409 7.037561 -5.796483 0
M  V30 4 C 4.663000 6.263307 -16.878633 0
M  V30 5 C 12.948391 9.547267 -6.252992 0
M  V30 6 C 9.649095 7.503568 -10.785280 0
M  V30 7 N 9.034858 3.402450 -12.291698 0 CHG=1
M  V30 8 C 6.895764 5.619803 -14.679230 0
M  V30 9 C 6.092041 6.803189 -16.803388 0
M  V30 10 C 6.050595 8.159174 -16.063357 0
M  V30 11 C 8.031359 4.424352 -12.660416 0 CFG=2
M  V30 12 C 7.997950 4.653578 -14.189033 0
M  V30 13 C 11.760300 8.255387 -7.766562 0
M  V30 14 C 9.287371 6.745274 -8.471684 0
M  V30 15 C 11.730751 9.338772 -5.521616 0
M  V30 16 O 11.434803 9.769297 -4.409512 0
M  V30 17 C 11.433507 7.935222 -9.050512 0
M  V30 18 N 7.003832 5.825930 -16.144330 0 CHG=1
M  V30 19 N 10.191148 7.377672 -9.427291 0
M  V30 20 C 12.946297 8.969301 -7.422587 0
M  V30 21 C 12.402070 8.187575 -10.204042 0
M  V30 22 C 6.585202 6.969291 -18.254273 0
M  V30 23 C 9.457271 6.202553 -11.537582 0
M  V30 24 H 9.931923 8.769251 -6.662028 0
M  V30 25 H 7.362816 6.283069 -11.636186 0
M  V30 26 H 11.644992 6.686632 -5.446999 0
M  V30 27 H 10.131778 7.076922 -5.010133 0
M  V30 28 H 4.634842 5.369316 -17.491684 0
M  V30 29 H 4.259851 6.041974 -15.894342 0
M  V30 30 H 3.992381 6.987633 -17.344374 0
M  V30 31 H 13.768382 10.122205 -5.849034 0
M  V30 32 H 8.671835 7.979802 -10.691626 0
M  V30 33 H 10.209845 8.195590 -11.408773 0
M  V30 34 H 9.037444 3.268072 -11.289229 0
M  V30 35 H 8.813574 2.516296 -12.723510 0
M  V30 36 H 5.910856 5.225914 -14.428747 0
M  V30 37 H 7.001434 6.576639 -14.167848 0
M  V30 38 H 7.034759 8.561518 -15.844423 0
M  V30 39 H 5.523432 8.909233 -16.651976 0
M  V30 40 H 5.517855 8.084196 -15.114497 0
M  V30 41 H 7.064880 4.032086 -12.340531 0
M  V30 42 H 8.970306 5.031572 -14.510056 0
M  V30 43 H 7.868505 3.692830 -14.690758 0
M  V30 44 H 9.822997 6.027310 -7.855129 0
M  V30 45 H 8.779012 7.474625 -7.844022 0
M  V30 46 H 8.512676 6.169425 -8.979988 0
M  V30 47 H 7.945149 6.145918 -16.323886 0
M  V30 48 H 13.795026 9.027777 -8.087042 0
M  V30 49 H 13.411371 7.910378 -9.901063 0
M  V30 50 H 12.201005 7.598576 -11.096956 0
M  V30 51 H 12.412752 9.247438 -10.456574 0
M  V30 52 H 6.565735 6.022075 -18.795611 0
M  V30 53 H 5.950785 7.662572 -18.810233 0
M  V30 54 H 7.609005 7.339905 -18.305659 0
M  V30 55 H 10.351573 5.655962 -11.790864 0
M  V30 56 H 6.889083 4.935100 -16.606321 0
M  V30 57 H 9.956903 3.695328 -12.589318 0
M  V30 END ATOM
M  V30 BEGIN BOND
M  V30 1 1 3 1
M  V30 2 1 9 4
M  V30 3 1 10 9
M  V30 4 1 11 2
M  V30 5 1 11 7
M  V30 6 1 12 8
M  V30 7 1 12 11
M  V30 8 1 13 1
M  V30 9 1 15 1
M  V30 10 1 15 5
M  V30 11 2 16 15
M  V30 12 2 17 13
M  V30 13 1 18 8
M  V30 14 1 18 9
M  V30 15 1 19 6
M  V30 16 1 19 14
M  V30 17 1 19 17
M  V30 18 2 20 5
M  V30 19 1 20 13
M  V30 20 1 21 17
M  V30 21 1 22 9
M  V30 22 2 23 2
M  V30 23 1 23 6
M  V30 24 1 1 24 CFG=3
M  V30 25 1 25 2
M  V30 26 1 26 3
M  V30 27 1 27 3
M  V30 28 1 28 4
M  V30 29 1 29 4
M  V30 30 1 30 4
M  V30 31 1 31 5
M  V30 32 1 32 6
M  V30 33 1 33 6
M  V30 34 1 34 7
M  V30 35 1 35 7
M  V30 36 1 36 8
M  V30 37 1 37 8
M  V30 38 1 38 10
M  V30 39 1 39 10
M  V30 40 1 40 10
M  V30 41 1 11 41 CFG=1
M  V30 42 1 42 12
M  V30 43 1 43 12
M  V30 44 1 44 14
M  V30 45 1 45 14
M  V30 46 1 46 14
M  V30 47 1 47 18
M  V30 48 1 48 20
M  V30 49 1 49 21
M  V30 50 1 50 21
M  V30 51 1 51 21
M  V30 52 1 52 22
M  V30 53 1 53 22
M  V30 54 1 54 22
M  V30 55 1 55 23
M  V30 56 1 56 18
M  V30 57 1 57 7
M  V30 END BOND
M  V30 END CTAB
M  END
>  <i_epik_Tot_Q>  (1) 
2

>  <i_epik_Tot_abs_Q>  (1) 
2

>  <i_i_glide_confnum>  (1) 
50

>  <i_i_glide_lignum>  (1) 
45

>  <i_i_glide_posenum>  (1) 
322

>  <i_i_glide_rotatable_bonds>  (1) 
8

>  <i_lp_mmshare_version>  (1) 
72125

>  <i_m_source_file_index>  (1) 
28

>  <i_f3d_flags>  (1) 
0

>  <num_sample>  (1) 
100

>  <b_lp_Chiralities_Consistent>  (1) 
1

>  <r_epik_Charging_Adjusted_Penalty>  (1) 
0.47954930221194114

>  <r_epik_Ionization_Penalty>  (1) 
0.082650424812652987

>  <r_epik_Ionization_Penalty_Charging>  (1) 
0.068869463259337155

>  <r_epik_Ionization_Penalty_Neutral>  (1) 
0.013780961553315832

>  <r_epik_State_Penalty>  (1) 
0.41067983895260396

>  <r_glide_ring_energy>  (1) 
0

>  <r_i_docking_score>  (1) 
-5.7921993351730237

>  <r_i_glide_ecoul>  (1) 
-6.3020234601935146

>  <r_i_glide_eff_state_penalty>  (1) 
0.41067983895260396

>  <r_i_glide_einternal>  (1) 
6.1104723498363427

>  <r_i_glide_emodel>  (1) 
-55.444003455255078

>  <r_i_glide_emodel_strain>  (1) 
1.4383993588254782

>  <r_i_glide_energy>  (1) 
-35.732271134099847

>  <r_i_glide_erotb>  (1) 
1.2586724494590871

>  <r_i_glide_esite>  (1) 
-0.067837871217835799

>  <r_i_glide_evdw>  (1) 
-29.430247673906333

>  <r_i_glide_gscore>  (1) 
-6.2028791741256279

>  <r_i_glide_gscore_strain>  (1) 
0

>  <r_i_glide_hbond>  (1) 
0

>  <r_i_glide_ligand_efficiency>  (1) 
-0.25183475370317493

>  <r_i_glide_ligand_efficiency_ln>  (1) 
-1.4006063200046457

>  <r_i_glide_ligand_efficiency_sa>  (1) 
-0.71618454043551105

>  <r_i_glide_lipo>  (1) 
-2.4166561223698069

>  <r_i_glide_metal>  (1) 
-0

>  <r_i_glide_rewards>  (1) 
-2.5602417272727278

>  <r_lp_Energy>  (1) 
26.442719

>  <r_lp_tautomer_probability>  (1) 
0.5

>  <s_epik_cmdline>  (1) 
J2VwaWtfcHl0aG9uJywgJy1waHQnLCAnMS4wJywgJy1waCcsICc3LjQnLCAnLXRuJywgJzgnLCAnLW1hJywgJzUwMCcsICctaW1hZScsICc8aW5maWxlLm1hZT4nLCAnLW9tYWUnLCAnPG91dGZpbGUubWFlPic=

>  <s_epik_input>  (1) 
Tz1DMVtDSF09W0NIXUMoXFtDQEhdMVtOSDJdKT1DKFtDSDNdKVxOKFtDSDNdKVtDSDJdXFtDSF09W0NIXVxbQ0BIXShbTkgyXSlbQ0gyXVtDSDJdW05IXUMoW0NIM10pKFtDSDNdKVtDSDNd

>  <s_glide_docking_method>  (1) 
confgen

>  <s_i_glide_gridfile>  (1) 
gpcr_drd2_6luq_protein_autoprepared_prepared

>  <s_lp_Force_Field>  (1) 
S-OPLS

>  <s_lp_Variant>  (1) 
DiffSBDD_27_num_sample_100-3

>  <s_m_source_file>  (1) 
generated__ligand_DiffSBDD_2026-05-06_prepared.sdf

>  <GenAI_Model>  (1) 
DiffSBDD

>  <Protein>  (1) 
generic_title2

$$$$
DiffSBDD_28_num_sample_100
     RDKit          3D

  0  0  0  0  0  0  0  0  0  0999 V3000
M  V30 BEGIN CTAB
M  V30 COUNTS 43 44 0 0 1
M  V30 BEGIN ATOM
M  V30 1 C 12.030992 9.050424 -3.024629 0
M  V30 2 C 6.386683 4.904620 -11.172907 0
M  V30 3 C 12.057326 8.993081 -4.553307 0
M  V30 4 N 10.473460 6.577843 -7.135857 0
M  V30 5 C 11.485837 6.578633 -2.890450 0
M  V30 6 C 10.234825 6.505767 -8.393457 0
M  V30 7 C 11.178134 6.650717 -4.381381 0
M  V30 8 O 10.462369 7.501983 -10.607349 0
M  V30 9 C 8.223306 5.633786 -9.756178 0
M  V30 10 C 8.719043 4.594272 -11.940056 0
M  V30 11 C 9.520650 5.290202 -8.989122 0
M  V30 12 C 5.833153 3.942760 -12.233603 0
M  V30 13 C 11.499368 8.698239 -7.430370 0
M  V30 14 N 11.261372 8.652655 -8.804819 0
M  V30 15 N 7.796557 4.638314 -10.772230 0 CFG=2 CHG=1
M  V30 16 C 12.418092 7.703666 -2.421372 0
M  V30 17 C 10.657000 7.600194 -9.396486 0
M  V30 18 C 11.137893 7.695019 -6.600738 0
M  V30 19 C 11.434754 7.730504 -5.160684 0
M  V30 20 H 12.726862 9.814024 -2.688777 0
M  V30 21 H 11.047877 9.368402 -2.678144 0
M  V30 22 H 5.749708 4.836750 -10.291634 0
M  V30 23 H 6.297122 5.930490 -11.535465 0
M  V30 24 H 13.090637 9.063557 -4.888363 0
M  V30 25 H 11.546234 9.878220 -4.933654 0
M  V30 26 H 10.560526 6.569240 -2.316231 0
M  V30 27 H 11.970581 5.627120 -2.682951 0
M  V30 28 H 10.740090 5.769275 -4.817130 0
M  V30 29 H 7.435068 5.769266 -9.014845 0
M  V30 30 H 8.285968 6.569320 -10.297534 0
M  V30 31 H 8.652392 5.514468 -12.522862 0
M  V30 32 H 9.761251 4.463615 -11.655770 0
M  V30 33 H 8.484317 3.757052 -12.596836 0
M  V30 34 H 10.234837 4.772776 -9.614277 0
M  V30 35 H 9.283805 4.583886 -8.192542 0
M  V30 36 H 4.775380 4.147972 -12.399938 0
M  V30 37 H 6.324199 4.062568 -13.198906 0
M  V30 38 H 5.931213 2.902850 -11.923226 0
M  V30 39 H 12.016228 9.589005 -7.108437 0
M  V30 40 H 11.579123 9.430083 -9.364668 0
M  V30 41 H 13.434809 7.467419 -2.729428 0
M  V30 42 H 12.434531 7.768937 -1.335991 0
M  V30 43 H 7.815686 3.730417 -10.330364 0
M  V30 END ATOM
M  V30 BEGIN BOND
M  V30 1 1 3 1
M  V30 2 2 6 4
M  V30 3 1 7 5
M  V30 4 1 11 6
M  V30 5 1 11 9
M  V30 6 1 12 2
M  V30 7 1 14 13
M  V30 8 1 15 2
M  V30 9 1 15 9
M  V30 10 1 15 10
M  V30 11 1 16 1
M  V30 12 1 16 5
M  V30 13 1 17 6
M  V30 14 2 17 8
M  V30 15 1 17 14
M  V30 16 1 18 4
M  V30 17 2 18 13
M  V30 18 1 19 3
M  V30 19 2 19 7
M  V30 20 1 19 18
M  V30 21 1 20 1
M  V30 22 1 21 1
M  V30 23 1 22 2
M  V30 24 1 23 2
M  V30 25 1 24 3
M  V30 26 1 25 3
M  V30 27 1 26 5
M  V30 28 1 27 5
M  V30 29 1 28 7
M  V30 30 1 29 9
M  V30 31 1 30 9
M  V30 32 1 31 10
M  V30 33 1 32 10
M  V30 34 1 33 10
M  V30 35 1 34 11
M  V30 36 1 35 11
M  V30 37 1 36 12
M  V30 38 1 37 12
M  V30 39 1 38 12
M  V30 40 1 39 13
M  V30 41 1 40 14
M  V30 42 1 41 16
M  V30 43 1 42 16
M  V30 44 1 15 43 CFG=1
M  V30 END BOND
M  V30 END CTAB
M  END
>  <i_epik_Tot_Q>  (1) 
1

>  <i_epik_Tot_abs_Q>  (1) 
1

>  <i_i_glide_confnum>  (1) 
56

>  <i_i_glide_lignum>  (1) 
48

>  <i_i_glide_posenum>  (1) 
258

>  <i_i_glide_rotatable_bonds>  (1) 
5

>  <i_lp_mmshare_version>  (1) 
72125

>  <i_m_source_file_index>  (1) 
29

>  <i_f3d_flags>  (1) 
0

>  <num_sample>  (1) 
100

>  <b_lp_Chiralities_Consistent>  (1) 
1

>  <r_epik_Charging_Adjusted_Penalty>  (1) 
0.16160378579191387

>  <r_epik_Ionization_Penalty>  (1) 
0.086651210493904285

>  <r_epik_Ionization_Penalty_Charging>  (1) 
0.086651186480528317

>  <r_epik_Ionization_Penalty_Neutral>  (1) 
2.4013375966173516e-08

>  <r_epik_State_Penalty>  (1) 
0.074952599311385565

>  <r_glide_ring_energy>  (1) 
0

>  <r_i_docking_score>  (1) 
-5.7900845098295424

>  <r_i_glide_ecoul>  (1) 
-3.911551745945526

>  <r_i_glide_eff_state_penalty>  (1) 
0.074952599311385565

>  <r_i_glide_einternal>  (1) 
3.7248823578024322

>  <r_i_glide_emodel>  (1) 
-47.367587567203095

>  <r_i_glide_emodel_strain>  (1) 
0.86986259477043859

>  <r_i_glide_energy>  (1) 
-34.182226383835101

>  <r_i_glide_erotb>  (1) 
1.0307106156986021

>  <r_i_glide_esite>  (1) 
-0.021818405872525454

>  <r_i_glide_evdw>  (1) 
-30.270674637889577

>  <r_i_glide_gscore>  (1) 
-5.8650371091409284

>  <r_i_glide_gscore_strain>  (1) 
0

>  <r_i_glide_hbond>  (1) 
0

>  <r_i_glide_ligand_efficiency>  (1) 
-0.30474128999102856

>  <r_i_glide_ligand_efficiency_ln>  (1) 
-1.4679107828543805

>  <r_i_glide_ligand_efficiency_sa>  (1) 
-0.81317216064571307

>  <r_i_glide_lipo>  (1) 
-2.4454547238620745

>  <r_i_glide_metal>  (1) 
-0

>  <r_i_glide_rewards>  (1) 
-2.3282081013186229

>  <r_lp_Energy>  (1) 
45.017665000000001

>  <s_epik_cmdline>  (1) 
J2VwaWtfcHl0aG9uJywgJy1waHQnLCAnMS4wJywgJy1waCcsICc3LjQnLCAnLXRuJywgJzgnLCAnLW1hJywgJzUwMCcsICctaW1hZScsICc8aW5maWxlLm1hZT4nLCAnLW9tYWUnLCAnPG91dGZpbGUubWFlPic=

>  <s_epik_input>  (1) 
W0NIMl0xW0NIMl1bQ0gyXVtDSDJdW0NIXT1DMWMoW2NIXVtuSF1jMj1PKW5jMltDSDJdW0NIMl1OKFtDSDNdKVtDSDJdW0NIM10=

>  <s_glide_docking_method>  (1) 
confgen

>  <s_i_glide_gridfile>  (1) 
gpcr_drd2_6luq_protein_autoprepared_prepared

>  <s_lp_Force_Field>  (1) 
S-OPLS

>  <s_lp_Variant>  (1) 
DiffSBDD_28_num_sample_100-2

>  <s_m_source_file>  (1) 
generated__ligand_DiffSBDD_2026-05-06_prepared.sdf

>  <GenAI_Model>  (1) 
DiffSBDD

>  <Protein>  (1) 
generic_title2

$$$$
DiffSBDD_76_num_sample_100
     RDKit          3D

  0  0  0  0  0  0  0  0  0  0999 V3000
M  V30 BEGIN CTAB
M  V30 COUNTS 78 81 0 0 1
M  V30 BEGIN ATOM
M  V30 1 C 8.862186 6.964044 -11.406483 0
M  V30 2 C 11.405790 8.449915 -7.267723 0
M  V30 3 C 8.141579 3.967565 -12.109538 0
M  V30 4 N 8.864371 5.728279 -10.592847 0 CFG=2 CHG=1
M  V30 5 C 11.834402 8.708907 -5.940690 0
M  V30 6 C 5.602843 -2.041274 -19.427737 0
M  V30 7 C 6.815012 -1.749051 -19.916924 0
M  V30 8 C 7.923951 0.324005 -17.083986 0 CFG=1
M  V30 9 C 10.599595 7.895834 -9.863837 0
M  V30 10 N 7.320795 1.189829 -14.652479 0 CFG=2 CHG=1
M  V30 11 C 5.940072 0.737695 -14.339928 0
M  V30 12 C 10.095447 7.090194 -8.830269 0
M  V30 13 C 7.587259 -0.494695 -19.541337 0
M  V30 14 C 10.112792 6.533204 -6.441162 0
M  V30 15 C 11.474853 8.934691 -9.536723 0
M  V30 16 C 7.163090 2.797945 -16.642426 0
M  V30 17 C 10.216143 7.638281 -11.302041 0
M  V30 18 C 7.961709 2.075267 -13.642692 0
M  V30 19 N 11.834798 9.221785 -8.286592 0
M  V30 20 O 6.239520 -0.230744 -13.357887 0
M  V30 21 O 11.834928 7.120926 -2.581329 0
M  V30 22 C 6.986762 0.313970 -18.341875 0 CFG=1
M  V30 23 C 11.435327 7.838637 -4.867614 0
M  V30 24 C 7.114178 3.048186 -12.806835 0
M  V30 25 N 8.658411 -2.088157 -17.126899 0 CHG=1
M  V30 26 C 7.750365 1.508686 -16.069528 0 CFG=2
M  V30 27 O 12.671741 9.768410 -5.719855 0 CHG=-1
M  V30 28 C 7.719622 4.840427 -10.922406 0
M  V30 29 C 10.527608 7.351334 -7.502058 0
M  V30 30 C 9.109814 5.951254 -9.140062 0
M  V30 31 C 7.985614 -1.030748 -16.365186 0
M  V30 32 C 4.946215 -1.177703 -18.482681 0
M  V30 33 C 5.556370 -0.092650 -17.982912 0
M  V30 34 C 11.937746 8.005219 -3.433507 0
M  V30 35 C 10.587374 6.756784 -5.143001 0
M  V30 36 C 12.565454 9.341150 -3.046687 0
M  V30 37 H 8.654326 6.755149 -12.455117 0
M  V30 38 H 8.083126 7.648089 -11.091751 0
M  V30 39 H 8.972246 3.355701 -11.752927 0
M  V30 40 H 8.557044 4.608074 -12.888145 0
M  V30 41 H 5.104265 -2.942167 -19.755997 0
M  V30 42 H 7.280645 -2.411506 -20.633083 0
M  V30 43 H 8.922260 0.483378 -17.495294 0
M  V30 44 H 5.448291 0.250116 -15.177760 0
M  V30 45 H 5.284964 1.486875 -13.892500 0
M  V30 46 H 7.569803 0.136210 -20.430410 0
M  V30 47 H 8.638647 -0.742904 -19.392500 0
M  V30 48 H 9.450016 5.707329 -6.624679 0
M  V30 49 H 11.892981 9.564737 -10.299587 0
M  V30 50 H 7.824508 3.220355 -17.401432 0
M  V30 51 H 6.235038 2.569279 -17.139242 0
M  V30 52 H 6.993944 3.565887 -15.888952 0
M  V30 53 H 10.158508 8.569667 -11.851888 0
M  V30 54 H 10.998480 7.029994 -11.763375 0
M  V30 55 H 8.566688 1.438738 -12.994692 0
M  V30 56 H 8.634845 2.742050 -14.159357 0
M  V30 57 H 5.628154 -0.965562 -13.418437 0
M  V30 58 H 6.911158 1.324057 -18.737451 0
M  V30 59 H 6.458583 3.646874 -13.438420 0
M  V30 60 H 6.471109 2.512613 -12.115772 0
M  V30 61 H 8.572992 -2.937170 -16.574260 0
M  V30 62 H 8.191595 -2.212322 -18.014921 0
M  V30 63 H 8.800088 1.769167 -15.943206 0
M  V30 64 H 6.824349 5.424080 -11.143928 0
M  V30 65 H 7.476699 4.200060 -10.075261 0
M  V30 66 H 8.174155 6.169181 -8.632194 0
M  V30 67 H 9.497423 5.020785 -8.725904 0
M  V30 68 H 8.525962 -0.961761 -15.420503 0
M  V30 69 H 6.970382 -1.364614 -16.158000 0
M  V30 70 H 3.935383 -1.406588 -18.173246 0
M  V30 71 H 5.034337 0.538513 -17.283210 0
M  V30 72 H 10.285737 6.095244 -4.344007 0
M  V30 73 H 11.895970 10.159408 -3.313839 0
M  V30 74 H 12.724719 9.367316 -1.969789 0
M  V30 75 H 13.529613 9.487223 -3.521212 0
M  V30 76 H 9.634629 -1.871340 -17.265862 0
M  V30 77 H 9.691535 5.234890 -10.893818 0
M  V30 78 H 7.811977 0.327017 -14.471762 0
M  V30 END ATOM
M  V30 BEGIN BOND
M  V30 1 1 4 1
M  V30 2 2 5 2
M  V30 3 2 7 6
M  V30 4 1 11 10
M  V30 5 2 12 9
M  V30 6 1 13 7
M  V30 7 1 15 9
M  V30 8 1 17 1
M  V30 9 1 17 9
M  V30 10 1 18 10
M  V30 11 1 19 2
M  V30 12 2 19 15
M  V30 13 1 20 11
M  V30 14 1 22 8
M  V30 15 1 22 13
M  V30 16 1 23 5
M  V30 17 1 24 3
M  V30 18 1 24 18
M  V30 19 1 26 8
M  V30 20 1 26 10
M  V30 21 1 26 16
M  V30 22 1 27 5
M  V30 23 1 28 3
M  V30 24 1 28 4
M  V30 25 1 29 2
M  V30 26 1 29 12
M  V30 27 2 29 14
M  V30 28 1 30 4
M  V30 29 1 30 12
M  V30 30 1 31 8
M  V30 31 1 31 25
M  V30 32 1 32 6
M  V30 33 1 33 22
M  V30 34 2 33 32
M  V30 35 2 34 21
M  V30 36 1 34 23
M  V30 37 1 35 14
M  V30 38 2 35 23
M  V30 39 1 36 34
M  V30 40 1 37 1
M  V30 41 1 38 1
M  V30 42 1 39 3
M  V30 43 1 40 3
M  V30 44 1 41 6
M  V30 45 1 42 7
M  V30 46 1 8 43 CFG=3
M  V30 47 1 44 11
M  V30 48 1 45 11
M  V30 49 1 46 13
M  V30 50 1 47 13
M  V30 51 1 48 14
M  V30 52 1 49 15
M  V30 53 1 50 16
M  V30 54 1 51 16
M  V30 55 1 52 16
M  V30 56 1 53 17
M  V30 57 1 54 17
M  V30 58 1 55 18
M  V30 59 1 56 18
M  V30 60 1 57 20
M  V30 61 1 22 58 CFG=3
M  V30 62 1 59 24
M  V30 63 1 60 24
M  V30 64 1 61 25
M  V30 65 1 62 25
M  V30 66 1 26 63 CFG=1
M  V30 67 1 64 28
M  V30 68 1 65 28
M  V30 69 1 66 30
M  V30 70 1 67 30
M  V30 71 1 68 31
M  V30 72 1 69 31
M  V30 73 1 70 32
M  V30 74 1 71 33
M  V30 75 1 72 35
M  V30 76 1 73 36
M  V30 77 1 74 36
M  V30 78 1 75 36
M  V30 79 1 76 25
M  V30 80 1 4 77 CFG=3
M  V30 81 1 10 78 CFG=1
M  V30 END BOND
M  V30 END CTAB
M  END
>  <i_epik_Tot_Q>  (1) 
2

>  <i_epik_Tot_abs_Q>  (1) 
4

>  <i_i_glide_confnum>  (1) 
1255

>  <i_i_glide_lignum>  (1) 
157

>  <i_i_glide_posenum>  (1) 
136

>  <i_i_glide_rotatable_bonds>  (1) 
12

>  <i_lp_mmshare_version>  (1) 
72125

>  <i_m_source_file_index>  (1) 
77

>  <i_f3d_flags>  (1) 
0

>  <num_sample>  (1) 
100

>  <b_lp_Chiralities_Consistent>  (1) 
1

>  <r_epik_Charging_Adjusted_Penalty>  (1) 
2.7385366295040585

>  <r_epik_Ionization_Penalty>  (1) 
1.4403839023663505

>  <r_epik_Ionization_Penalty_Charging>  (1) 
1.4088334024277234

>  <r_epik_Ionization_Penalty_Neutral>  (1) 
0.03155049993862722

>  <r_epik_State_Penalty>  (1) 
1.3297032270763354

>  <r_glide_ring_energy>  (1) 
0.68305203791256774

>  <r_i_docking_score>  (1) 
-5.7875886811261559

>  <r_i_glide_ecoul>  (1) 
-14.001305048135166

>  <r_i_glide_eff_state_penalty>  (1) 
1.3297032270763354

>  <r_i_glide_einternal>  (1) 
29.058916964565839

>  <r_i_glide_emodel>  (1) 
-49.395680645796176

>  <r_i_glide_emodel_strain>  (1) 
2.2712348968668152

>  <r_i_glide_energy>  (1) 
-42.95467102672653

>  <r_i_glide_erotb>  (1) 
0.66625950385389887

>  <r_i_glide_esite>  (1) 
-0.11872526809628092

>  <r_i_glide_evdw>  (1) 
-28.953365978591368

>  <r_i_glide_gscore>  (1) 
-7.1172919082024908

>  <r_i_glide_gscore_strain>  (1) 
0

>  <r_i_glide_hbond>  (1) 
-0.16

>  <r_i_glide_ligand_efficiency>  (1) 
-0.16076635225350433

>  <r_i_glide_ligand_efficiency_ln>  (1) 
-1.2626954876454854

>  <r_i_glide_ligand_efficiency_sa>  (1) 
-0.53083879921123811

>  <r_i_glide_lipo>  (1) 
-2.4782291046166258

>  <r_i_glide_metal>  (1) 
-0

>  <r_i_glide_rewards>  (1) 
-1.4787329831936402

>  <r_lp_Energy>  (1) 
78.881341999999989

>  <r_lp_tautomer_probability>  (1) 
0.99995000000000001

>  <s_epik_Chemistry_Notes>  (1) 
This compound contains an acetal/aminal-like group ( X-CH(R)-Y where X, Y are N, S, or O) that may be acid/base labile, releasing an aldehyde.

>  <s_epik_cmdline>  (1) 
J2VwaWtfcHl0aG9uJywgJy1waHQnLCAnMS4wJywgJy1waCcsICc3LjQnLCAnLXRuJywgJzgnLCAnLW1hJywgJzUwMCcsICctaW1hZScsICc8aW5maWxlLm1hZT4nLCAnLW9tYWUnLCAnPG91dGZpbGUubWFlPic=

>  <s_epik_input>  (1) 
Tz1DKFtDSDNdKWMoYzFbT0hdKVtjSF1bY0hdYyhjMTIpYzNjKFtjSF1uMilbQ0gyXVtDSDJdTihbQ0gyXTMpW0NIMl1bQ0gyXVtDSDJdW0NIMl1OKFtDSDJdW09IXSlbQ0BIXShbQ0gzXSlbQ0BASF0oW0NIMl1bTkgyXSlbQ0BIXTRbQ0gyXVtDSF09W0NIXVtDSF09W0NIXTQ=

>  <s_glide_docking_method>  (1) 
confgen

>  <s_i_glide_gridfile>  (1) 
gpcr_drd2_6luq_protein_autoprepared_prepared

>  <s_lp_Force_Field>  (1) 
S-OPLS

>  <s_lp_Variant>  (1) 
DiffSBDD_76_num_sample_100-6

>  <s_m_source_file>  (1) 
generated__ligand_DiffSBDD_2026-05-06_prepared.sdf

>  <GenAI_Model>  (1) 
DiffSBDD

>  <Protein>  (1) 
generic_title2

$$$$
DiffSBDD_90_num_sample_100
     RDKit          3D

  0  0  0  0  0  0  0  0  0  0999 V3000
M  V30 BEGIN CTAB
M  V30 COUNTS 61 65 0 0 1
M  V30 BEGIN ATOM
M  V30 1 C 5.194249 3.912129 -21.563341 0
M  V30 2 C 5.733345 5.370792 -18.718773 0
M  V30 3 C 11.268930 8.563020 -8.086703 0
M  V30 4 S 5.434848 2.689694 -22.782222 0
M  V30 5 C 7.219191 5.017209 -16.783376 0
M  V30 6 C 7.285721 3.504717 -18.682832 0
M  V30 7 C 7.771211 3.868053 -17.417486 0
M  V30 8 C 10.196620 8.130862 -9.105467 0
M  V30 9 C 10.330075 7.370322 -6.041464 0
M  V30 10 C 11.678198 9.497484 -5.759162 0
M  V30 11 N 10.119714 6.653420 -9.309443 0 CFG=1 CHG=1
M  V30 12 C 10.022649 5.827708 -8.073282 0
M  V30 13 C 8.677751 6.509055 -12.915689 0
M  V30 14 C 6.109929 7.297652 -15.544316 0
M  V30 15 C 6.308496 4.238037 -19.297647 0
M  V30 16 C 9.179610 6.198482 -10.378839 0
M  V30 17 C 6.662918 1.908402 -21.801778 0
M  V30 18 C 7.788961 2.253045 -19.518459 0
M  V30 19 C 7.685464 5.422320 -15.517404 0
M  V30 20 C 9.355066 6.530622 -6.878142 0
M  V30 21 N 6.814509 2.592681 -20.653092 0 CHG=1
M  V30 22 C 7.443900 0.681280 -22.139787 0
M  V30 23 C 10.708413 8.721677 -6.664714 0 CFG=1
M  V30 24 C 5.640249 6.896410 -16.808900 0
M  V30 25 C 6.191146 5.769303 -17.438096 0
M  V30 26 C 7.667402 7.075942 -13.602955 0
M  V30 27 C 9.242496 7.083525 -11.634220 0
M  V30 28 C 7.140845 6.577155 -14.894633 0
M  V30 29 C 6.021914 3.683275 -20.503516 0
M  V30 30 H 4.473611 4.703380 -21.705365 0
M  V30 31 H 4.960683 5.925890 -19.230884 0
M  V30 32 H 11.657420 9.529554 -8.410184 0
M  V30 33 H 12.126438 7.889699 -8.099241 0
M  V30 34 H 8.546320 3.288897 -16.936042 0
M  V30 35 H 10.487889 8.600963 -10.041784 0
M  V30 36 H 9.216633 8.544451 -8.860707 0
M  V30 37 H 9.845559 7.565779 -5.091665 0
M  V30 38 H 11.223724 6.789101 -5.809647 0
M  V30 39 H 12.624713 8.970370 -5.639468 0
M  V30 40 H 11.895938 10.484083 -6.170403 0
M  V30 41 H 11.252425 9.648267 -4.766258 0
M  V30 42 H 9.489873 4.900016 -8.289317 0
M  V30 43 H 11.029786 5.514257 -7.793831 0
M  V30 44 H 9.145452 5.609787 -13.279729 0
M  V30 45 H 5.693519 8.175798 -15.076825 0
M  V30 46 H 8.163746 6.169315 -9.991957 0
M  V30 47 H 9.433570 5.171141 -10.644583 0
M  V30 48 H 8.821800 2.327257 -19.860176 0
M  V30 49 H 7.540327 1.290911 -19.070527 0
M  V30 50 H 8.470816 4.862148 -15.037568 0
M  V30 51 H 8.498256 7.122059 -7.191143 0
M  V30 52 H 8.940332 5.769350 -6.222997 0
M  V30 53 H 8.506692 0.924208 -22.131896 0
M  V30 54 H 7.223109 -0.089314 -21.400688 0
M  V30 55 H 9.802929 9.323213 -6.726393 0
M  V30 56 H 4.862729 7.463647 -17.299161 0
M  V30 57 H 7.208237 7.970497 -13.211264 0
M  V30 58 H 10.284168 7.305473 -11.870487 0
M  V30 59 H 8.755261 8.040332 -11.437251 0
M  V30 60 H 7.147030 0.339998 -23.131741 0
M  V30 61 H 11.026322 6.419127 -9.682080 0
M  V30 END ATOM
M  V30 BEGIN BOND
M  V30 1 1 4 1
M  V30 2 2 7 5
M  V30 3 1 7 6
M  V30 4 1 8 3
M  V30 5 1 11 8
M  V30 6 1 12 11
M  V30 7 1 15 2
M  V30 8 2 15 6
M  V30 9 1 16 11
M  V30 10 1 17 4
M  V30 11 1 18 6
M  V30 12 1 19 5
M  V30 13 1 20 9
M  V30 14 1 20 12
M  V30 15 2 21 17
M  V30 16 1 21 18
M  V30 17 1 22 17
M  V30 18 1 23 3
M  V30 19 1 23 9
M  V30 20 1 23 10
M  V30 21 2 24 14
M  V30 22 2 25 2
M  V30 23 1 25 5
M  V30 24 1 25 24
M  V30 25 2 26 13
M  V30 26 1 27 13
M  V30 27 1 27 16
M  V30 28 1 28 14
M  V30 29 2 28 19
M  V30 30 1 28 26
M  V30 31 2 29 1
M  V30 32 1 29 15
M  V30 33 1 29 21
M  V30 34 1 30 1
M  V30 35 1 31 2
M  V30 36 1 32 3
M  V30 37 1 33 3
M  V30 38 1 34 7
M  V30 39 1 35 8
M  V30 40 1 36 8
M  V30 41 1 37 9
M  V30 42 1 38 9
M  V30 43 1 39 10
M  V30 44 1 40 10
M  V30 45 1 41 10
M  V30 46 1 42 12
M  V30 47 1 43 12
M  V30 48 1 44 13
M  V30 49 1 45 14
M  V30 50 1 46 16
M  V30 51 1 47 16
M  V30 52 1 48 18
M  V30 53 1 49 18
M  V30 54 1 50 19
M  V30 55 1 51 20
M  V30 56 1 52 20
M  V30 57 1 53 22
M  V30 58 1 54 22
M  V30 59 1 23 55 CFG=3
M  V30 60 1 56 24
M  V30 61 1 57 26
M  V30 62 1 58 27
M  V30 63 1 59 27
M  V30 64 1 60 22
M  V30 65 1 11 61 CFG=3
M  V30 END BOND
M  V30 END CTAB
M  END
>  <i_epik_Tot_Q>  (1) 
2

>  <i_epik_Tot_abs_Q>  (1) 
2

>  <i_i_glide_confnum>  (1) 
225

>  <i_i_glide_lignum>  (1) 
182

>  <i_i_glide_posenum>  (1) 
182

>  <i_i_glide_rotatable_bonds>  (1) 
4

>  <i_lp_mmshare_version>  (1) 
72125

>  <i_m_source_file_index>  (1) 
91

>  <i_f3d_flags>  (1) 
0

>  <num_sample>  (1) 
100

>  <b_lp_Chiralities_Consistent>  (1) 
1

>  <r_epik_Charging_Adjusted_Penalty>  (1) 
0.0021252633397680827

>  <r_epik_Ionization_Penalty>  (1) 
0.002125263340211697

>  <r_epik_Ionization_Penalty_Charging>  (1) 
0.0021252633397680827

>  <r_epik_Ionization_Penalty_Neutral>  (1) 
4.4361447992621368e-13

>  <r_epik_State_Penalty>  (1) 
-0

>  <r_glide_ring_energy>  (1) 
1.4535170685106102

>  <r_i_docking_score>  (1) 
-5.7844522318574532

>  <r_i_glide_ecoul>  (1) 
-1.9807437222403239

>  <r_i_glide_eff_state_penalty>  (1) 
-0

>  <r_i_glide_einternal>  (1) 
4.4719832581472714

>  <r_i_glide_emodel>  (1) 
-44.973844154844315

>  <r_i_glide_emodel_strain>  (1) 
0.19258653998190312

>  <r_i_glide_energy>  (1) 
-33.370766821836604

>  <r_i_glide_erotb>  (1) 
0.47996519481946287

>  <r_i_glide_esite>  (1) 
-0.06163592371919701

>  <r_i_glide_evdw>  (1) 
-31.390023099596277

>  <r_i_glide_gscore>  (1) 
-5.7844522318574532

>  <r_i_glide_gscore_strain>  (1) 
0

>  <r_i_glide_hbond>  (1) 
0

>  <r_i_glide_ligand_efficiency>  (1) 
-0.19946387006405011

>  <r_i_glide_ligand_efficiency_ln>  (1) 
-1.3244928800427442

>  <r_i_glide_ligand_efficiency_sa>  (1) 
-0.61281620411419679

>  <r_i_glide_lipo>  (1) 
-2.8263677541833263

>  <r_i_glide_metal>  (1) 
-0

>  <r_i_glide_rewards>  (1) 
-1.5098010354585298

>  <r_lp_Energy>  (1) 
47.281444999999998

>  <r_lp_tautomer_probability>  (1) 
1

>  <s_epik_cmdline>  (1) 
J2VwaWtfcHl0aG9uJywgJy1waHQnLCAnMS4wJywgJy1waCcsICc3LjQnLCAnLXRuJywgJzgnLCAnLW1hJywgJzUwMCcsICctaW1hZScsICc8aW5maWxlLm1hZT4nLCAnLW9tYWUnLCAnPG91dGZpbGUubWFlPic=

>  <s_epik_input>  (1) 
W0NIMl09QzFTW0NIXT1DMk4xW0NIMl1jKFtjSF0zKWMyW2NIXWMoYzM0KVtjSF1bY0hdYyhbY0hdNClcW0NIXT1bQ0hdXFtDSDJdW0NIMl1ONVtDSDJdW0NIMl1bQ0BIXShbQ0gzXSlbQ0gyXVtDSDJdW0NIMl01

>  <s_glide_docking_method>  (1) 
confgen

>  <s_i_glide_gridfile>  (1) 
gpcr_drd2_6luq_protein_autoprepared_prepared

>  <s_lp_Force_Field>  (1) 
S-OPLS

>  <s_lp_Variant>  (1) 
DiffSBDD_90_num_sample_100-2

>  <s_m_source_file>  (1) 
generated__ligand_DiffSBDD_2026-05-06_prepared.sdf

>  <GenAI_Model>  (1) 
DiffSBDD

>  <Protein>  (1) 
generic_title2

$$$$
DiffSBDD_2_num_sample_100
     RDKit          3D

  0  0  0  0  0  0  0  0  0  0999 V3000
M  V30 BEGIN CTAB
M  V30 COUNTS 31 32 0 0 1
M  V30 BEGIN ATOM
M  V30 1 C 11.434839 7.200725 -4.683437 0
M  V30 2 C 9.027363 5.133649 -12.543115 0 CFG=2
M  V30 3 O 11.058675 8.705873 -6.985765 0
M  V30 4 C 8.993435 4.908825 -11.018830 0
M  V30 5 C 10.905363 6.632714 -5.883418 0
M  V30 6 O 11.834842 10.603592 -5.935048 0
M  V30 7 N 8.943977 6.169301 -10.299561 0
M  V30 8 C 12.505940 8.341730 -2.342882 0
M  V30 9 C 11.572827 9.410293 -5.891673 0
M  V30 10 C 10.215231 6.831066 -8.186127 0
M  V30 11 C 11.774547 8.561106 -4.663295 0
M  V30 12 C 10.735444 7.367765 -6.976561 0
M  V30 13 C 9.676085 6.433574 -9.205416 0
M  V30 14 O 10.234815 5.769296 -12.914193 0
M  V30 15 C 7.840759 5.952918 -13.073378 0
M  V30 16 C 12.310433 9.132533 -3.489085 0
M  V30 17 C 12.166385 6.979702 -2.367210 0
M  V30 18 C 11.630239 6.412406 -3.535677 0
M  V30 19 H 9.013737 4.159254 -13.033082 0
M  V30 20 H 8.097839 4.343735 -10.758504 0
M  V30 21 H 9.834840 4.300384 -10.694341 0
M  V30 22 H 10.652116 5.593037 -5.877403 0
M  V30 23 H 8.038354 6.637985 -10.340309 0
M  V30 24 H 12.918891 8.781829 -1.446545 0
M  V30 25 H 10.892916 5.103078 -13.091667 0
M  V30 26 H 6.892421 5.486903 -12.805174 0
M  V30 27 H 7.839585 6.966257 -12.669974 0
M  V30 28 H 7.875552 6.032646 -14.160107 0
M  V30 29 H 12.575211 10.169301 -3.468112 0
M  V30 30 H 12.317506 6.367342 -1.491667 0
M  V30 31 H 11.373860 5.369305 -3.554449 0
M  V30 END ATOM
M  V30 BEGIN BOND
M  V30 1 1 4 2
M  V30 2 1 5 1
M  V30 3 1 7 4
M  V30 4 1 9 3
M  V30 5 2 9 6
M  V30 6 1 11 1
M  V30 7 1 11 9
M  V30 8 1 12 3
M  V30 9 2 12 5
M  V30 10 1 12 10
M  V30 11 1 13 7
M  V30 12 3 13 10
M  V30 13 1 14 2
M  V30 14 1 15 2
M  V30 15 1 16 8
M  V30 16 2 16 11
M  V30 17 2 17 8
M  V30 18 2 18 1
M  V30 19 1 18 17
M  V30 20 1 2 19 CFG=3
M  V30 21 1 20 4
M  V30 22 1 21 4
M  V30 23 1 22 5
M  V30 24 1 23 7
M  V30 25 1 24 8
M  V30 26 1 25 14
M  V30 27 1 26 15
M  V30 28 1 27 15
M  V30 29 1 28 15
M  V30 30 1 29 16
M  V30 31 1 30 17
M  V30 32 1 31 18
M  V30 END BOND
M  V30 END CTAB
M  END
>  <i_epik_Tot_Q>  (1) 
0

>  <i_epik_Tot_abs_Q>  (1) 
0

>  <i_i_glide_confnum>  (1) 
8

>  <i_i_glide_lignum>  (1) 
4

>  <i_i_glide_posenum>  (1) 
141

>  <i_i_glide_rotatable_bonds>  (1) 
5

>  <i_lp_mmshare_version>  (1) 
72125

>  <i_m_source_file_index>  (1) 
3

>  <i_f3d_flags>  (1) 
0

>  <num_sample>  (1) 
100

>  <b_lp_Chiralities_Consistent>  (1) 
1

>  <r_epik_Charging_Adjusted_Penalty>  (1) 
0.030576885115692693

>  <r_epik_Ionization_Penalty>  (1) 
0.030576926290342817

>  <r_epik_Ionization_Penalty_Charging>  (1) 
0

>  <r_epik_Ionization_Penalty_Neutral>  (1) 
0.030576926290342817

>  <r_epik_State_Penalty>  (1) 
0.030576885115692693

>  <r_glide_ring_energy>  (1) 
0

>  <r_i_docking_score>  (1) 
-5.7843919218285897

>  <r_i_glide_ecoul>  (1) 
-8.0531056071396439

>  <r_i_glide_eff_state_penalty>  (1) 
0.030576885115692693

>  <r_i_glide_einternal>  (1) 
0.43019662967279615

>  <r_i_glide_emodel>  (1) 
-45.21475242948781

>  <r_i_glide_emodel_strain>  (1) 
0.22400917282229926

>  <r_i_glide_energy>  (1) 
-33.878465630141136

>  <r_i_glide_erotb>  (1) 
0.8801959699319355

>  <r_i_glide_esite>  (1) 
0

>  <r_i_glide_evdw>  (1) 
-25.825360023001494

>  <r_i_glide_gscore>  (1) 
-5.8149688069442824

>  <r_i_glide_gscore_strain>  (1) 
0

>  <r_i_glide_hbond>  (1) 
-0.43819380152953252

>  <r_i_glide_ligand_efficiency>  (1) 
-0.32135510676825496

>  <r_i_glide_ligand_efficiency_ln>  (1) 
-1.4868481167868322

>  <r_i_glide_ligand_efficiency_sa>  (1) 
-0.84218863054798543

>  <r_i_glide_lipo>  (1) 
-2.6072685649438445

>  <r_i_glide_metal>  (1) 
-0

>  <r_i_glide_rewards>  (1) 
-1.1504685681818185

>  <r_lp_Energy>  (1) 
10.004031999999999

>  <s_epik_cmdline>  (1) 
J2VwaWtfcHl0aG9uJywgJy1waHQnLCAnMS4wJywgJy1waCcsICc3LjQnLCAnLXRuJywgJzgnLCAnLW1hJywgJzUwMCcsICctaW1hZScsICc8aW5maWxlLm1hZT4nLCAnLW9tYWUnLCAnPG91dGZpbGUubWFlPic=

>  <s_epik_input>  (1) 
W2NIXTFbY0hdW2NIXVtjSF1jKGMxMiljKD1PKW9jKFtjSF0yKUMjQ1tOSF1bQ0gyXVtDQEhdKFtPSF0pW0NIM10=

>  <s_glide_docking_method>  (1) 
confgen

>  <s_i_glide_gridfile>  (1) 
gpcr_drd2_6luq_protein_autoprepared_prepared

>  <s_lp_Force_Field>  (1) 
S-OPLS

>  <s_lp_Variant>  (1) 
DiffSBDD_2_num_sample_100-1

>  <s_m_source_file>  (1) 
generated__ligand_DiffSBDD_2026-05-06_prepared.sdf

>  <GenAI_Model>  (1) 
DiffSBDD

>  <Protein>  (1) 
generic_title2

$$$$
DiffSBDD_28_num_sample_100
     RDKit          3D

  0  0  0  0  0  0  0  0  0  0999 V3000
M  V30 BEGIN CTAB
M  V30 COUNTS 43 44 0 0 1
M  V30 BEGIN ATOM
M  V30 1 C 12.035592 9.046908 -3.035819 0
M  V30 2 C 8.643117 4.272913 -11.869615 0
M  V30 3 C 12.048944 9.004802 -4.565965 0
M  V30 4 N 10.472715 6.606521 -7.171101 0
M  V30 5 C 11.496947 6.573852 -2.924453 0
M  V30 6 C 10.225276 6.552928 -8.429732 0
M  V30 7 C 11.187922 6.653562 -4.414577 0
M  V30 8 O 10.417453 7.588886 -10.624620 0
M  V30 9 C 8.204011 5.643395 -9.794991 0
M  V30 10 C 6.336642 4.759159 -11.141294 0
M  V30 11 C 9.521554 5.337651 -9.042653 0
M  V30 12 C 8.756296 5.407479 -12.905187 0
M  V30 13 C 11.479223 8.739391 -7.440406 0
M  V30 14 N 11.229751 8.713334 -8.813268 0
M  V30 15 N 7.744347 4.569315 -10.715100 0 CFG=1 CHG=1
M  V30 16 C 12.427406 7.695490 -2.451372 0
M  V30 17 C 10.626146 7.666945 -9.416027 0
M  V30 18 C 11.131684 7.721760 -6.623538 0
M  V30 19 C 11.434824 7.742595 -5.184494 0
M  V30 20 H 12.739316 9.799274 -2.691377 0
M  V30 21 H 11.057931 9.367953 -2.675994 0
M  V30 22 H 9.636498 3.993171 -11.525493 0
M  V30 23 H 8.266434 3.380778 -12.371916 0
M  V30 24 H 13.077030 9.094011 -4.912996 0
M  V30 25 H 11.522864 9.887091 -4.930432 0
M  V30 26 H 10.574265 6.569244 -2.348125 0
M  V30 27 H 11.979451 5.620532 -2.719882 0
M  V30 28 H 10.755785 5.769458 -4.856957 0
M  V30 29 H 7.435370 5.769222 -9.032752 0
M  V30 30 H 8.234839 6.567808 -10.365343 0
M  V30 31 H 6.203168 5.709390 -11.658887 0
M  V30 32 H 6.020469 3.956191 -11.808207 0
M  V30 33 H 5.658472 4.755438 -10.291613 0
M  V30 34 H 10.234828 4.861626 -9.697203 0
M  V30 35 H 9.321775 4.605077 -8.260086 0
M  V30 36 H 9.441219 5.120231 -13.703503 0
M  V30 37 H 7.798514 5.634839 -13.372529 0
M  V30 38 H 9.142860 6.327370 -12.471366 0
M  V30 39 H 11.990487 9.629977 -7.108270 0
M  V30 40 H 11.534740 9.502497 -9.363044 0
M  V30 41 H 13.435463 7.460483 -2.780626 0
M  V30 42 H 12.461086 7.753493 -1.365704 0
M  V30 43 H 7.738272 3.727966 -10.156062 0
M  V30 END ATOM
M  V30 BEGIN BOND
M  V30 1 1 3 1
M  V30 2 2 6 4
M  V30 3 1 7 5
M  V30 4 1 11 6
M  V30 5 1 11 9
M  V30 6 1 12 2
M  V30 7 1 14 13
M  V30 8 1 15 2
M  V30 9 1 15 9
M  V30 10 1 15 10
M  V30 11 1 16 1
M  V30 12 1 16 5
M  V30 13 1 17 6
M  V30 14 2 17 8
M  V30 15 1 17 14
M  V30 16 1 18 4
M  V30 17 2 18 13
M  V30 18 1 19 3
M  V30 19 2 19 7
M  V30 20 1 19 18
M  V30 21 1 20 1
M  V30 22 1 21 1
M  V30 23 1 22 2
M  V30 24 1 23 2
M  V30 25 1 24 3
M  V30 26 1 25 3
M  V30 27 1 26 5
M  V30 28 1 27 5
M  V30 29 1 28 7
M  V30 30 1 29 9
M  V30 31 1 30 9
M  V30 32 1 31 10
M  V30 33 1 32 10
M  V30 34 1 33 10
M  V30 35 1 34 11
M  V30 36 1 35 11
M  V30 37 1 36 12
M  V30 38 1 37 12
M  V30 39 1 38 12
M  V30 40 1 39 13
M  V30 41 1 40 14
M  V30 42 1 41 16
M  V30 43 1 42 16
M  V30 44 1 15 43 CFG=1
M  V30 END BOND
M  V30 END CTAB
M  END
>  <i_epik_Tot_Q>  (1) 
1

>  <i_epik_Tot_abs_Q>  (1) 
1

>  <i_i_glide_confnum>  (1) 
18

>  <i_i_glide_lignum>  (1) 
47

>  <i_i_glide_posenum>  (1) 
362

>  <i_i_glide_rotatable_bonds>  (1) 
5

>  <i_lp_mmshare_version>  (1) 
72125

>  <i_m_source_file_index>  (1) 
29

>  <i_f3d_flags>  (1) 
0

>  <num_sample>  (1) 
100

>  <b_lp_Chiralities_Consistent>  (1) 
1

>  <r_epik_Charging_Adjusted_Penalty>  (1) 
0.16160378579191387

>  <r_epik_Ionization_Penalty>  (1) 
0.086651210493904285

>  <r_epik_Ionization_Penalty_Charging>  (1) 
0.086651186480528317

>  <r_epik_Ionization_Penalty_Neutral>  (1) 
2.4013375966173516e-08

>  <r_epik_State_Penalty>  (1) 
0.074952599311385565

>  <r_glide_ring_energy>  (1) 
0

>  <r_i_docking_score>  (1) 
-5.7821587125848435

>  <r_i_glide_ecoul>  (1) 
-3.9543337342753624

>  <r_i_glide_eff_state_penalty>  (1) 
0.074952599311385565

>  <r_i_glide_einternal>  (1) 
2.6132436592908652

>  <r_i_glide_emodel>  (1) 
-47.27617899791462

>  <r_i_glide_emodel_strain>  (1) 
0.46243867705633335

>  <r_i_glide_energy>  (1) 
-34.11207333746033

>  <r_i_glide_erotb>  (1) 
1.0307106156986021

>  <r_i_glide_esite>  (1) 
-0.024383200105095273

>  <r_i_glide_evdw>  (1) 
-30.157739603184972

>  <r_i_glide_gscore>  (1) 
-5.8571113118962295

>  <r_i_glide_gscore_strain>  (1) 
0

>  <r_i_glide_hbond>  (1) 
0

>  <r_i_glide_ligand_efficiency>  (1) 
-0.30432414276762332

>  <r_i_glide_ligand_efficiency_ln>  (1) 
-1.4659014230223331

>  <r_i_glide_ligand_efficiency_sa>  (1) 
-0.81205904430701881

>  <r_i_glide_lipo>  (1) 
-2.426965934508714

>  <r_i_glide_metal>  (1) 
-0

>  <r_i_glide_rewards>  (1) 
-2.335435752680469

>  <r_lp_Energy>  (1) 
45.398657999999998

>  <s_epik_cmdline>  (1) 
J2VwaWtfcHl0aG9uJywgJy1waHQnLCAnMS4wJywgJy1waCcsICc3LjQnLCAnLXRuJywgJzgnLCAnLW1hJywgJzUwMCcsICctaW1hZScsICc8aW5maWxlLm1hZT4nLCAnLW9tYWUnLCAnPG91dGZpbGUubWFlPic=

>  <s_epik_input>  (1) 
W0NIMl0xW0NIMl1bQ0gyXVtDSDJdW0NIXT1DMWMoW2NIXVtuSF1jMj1PKW5jMltDSDJdW0NIMl1OKFtDSDNdKVtDSDJdW0NIM10=

>  <s_glide_docking_method>  (1) 
confgen

>  <s_i_glide_gridfile>  (1) 
gpcr_drd2_6luq_protein_autoprepared_prepared

>  <s_lp_Force_Field>  (1) 
S-OPLS

>  <s_lp_Variant>  (1) 
DiffSBDD_28_num_sample_100-1

>  <s_m_source_file>  (1) 
generated__ligand_DiffSBDD_2026-05-06_prepared.sdf

>  <GenAI_Model>  (1) 
DiffSBDD

>  <Protein>  (1) 
generic_title2

$$$$
DiffSBDD_76_num_sample_100
     RDKit          3D

  0  0  0  0  0  0  0  0  0  0999 V3000
M  V30 BEGIN CTAB
M  V30 COUNTS 78 81 0 0 1
M  V30 BEGIN ATOM
M  V30 1 C 9.559049 6.502965 -11.449935 0
M  V30 2 C 11.403462 8.464763 -7.132783 0
M  V30 3 C 7.533870 4.596617 -12.330603 0
M  V30 4 N 8.594138 6.005170 -10.457755 0 CFG=1 CHG=1
M  V30 5 C 11.834792 8.686923 -5.796630 0
M  V30 6 C 8.156814 -0.161675 -19.879217 0
M  V30 7 C 8.818966 -0.937050 -19.012117 0
M  V30 8 C 6.625117 -0.325101 -16.168252 0 CFG=1
M  V30 9 C 10.469822 8.046526 -9.713411 0
M  V30 10 N 6.553982 1.227439 -14.083634 0 CFG=2 CHG=1
M  V30 11 C 6.090714 0.604961 -12.809705 0
M  V30 12 C 10.054197 7.162654 -8.713769 0
M  V30 13 C 8.838006 -0.684733 -17.506309 0
M  V30 14 C 10.151122 6.496974 -6.359771 0
M  V30 15 C 11.369843 9.064235 -9.380931 0
M  V30 16 C 4.372811 0.303717 -15.013146 0
M  V30 17 C 9.941820 7.912024 -11.118556 0
M  V30 18 C 6.729835 2.715792 -13.998749 0
M  V30 19 N 11.820806 9.271197 -8.136764 0
M  V30 20 O 6.634756 -0.631012 -12.983365 0
M  V30 21 O 12.637655 8.911066 -2.937574 0
M  V30 22 C 7.765099 0.346421 -17.006113 0 CFG=1
M  V30 23 C 11.472442 7.772380 -4.758159 0
M  V30 24 C 7.113396 3.165373 -12.580603 0
M  V30 25 N 6.316747 -2.377192 -17.668789 0 CHG=1
M  V30 26 C 5.837157 0.745272 -15.325068 0 CFG=2
M  V30 27 O 12.641035 9.766719 -5.527132 0 CHG=-1
M  V30 28 C 8.013593 4.702013 -10.854507 0
M  V30 29 C 10.532136 7.363889 -7.392891 0
M  V30 30 C 9.104869 6.005262 -9.052037 0
M  V30 31 C 5.673076 -1.206873 -17.050034 0
M  V30 32 C 7.386423 0.969541 -19.436229 0
M  V30 33 C 7.205982 1.229285 -18.134450 0
M  V30 34 C 12.007942 7.934733 -3.339741 0
M  V30 35 C 10.634551 6.681487 -5.060734 0
M  V30 36 C 11.728056 6.771732 -2.383855 0
M  V30 37 H 10.425296 5.846364 -11.506377 0
M  V30 38 H 9.132620 6.568985 -12.447210 0
M  V30 39 H 8.333081 4.785871 -13.044525 0
M  V30 40 H 6.720240 5.293321 -12.538827 0
M  V30 41 H 8.208037 -0.386351 -20.936481 0
M  V30 42 H 9.392923 -1.774472 -19.376470 0
M  V30 43 H 7.097968 -1.003865 -15.464401 0
M  V30 44 H 5.030450 0.569122 -12.614700 0
M  V30 45 H 6.569131 0.916916 -11.891049 0
M  V30 46 H 9.833480 -0.298385 -17.278193 0
M  V30 47 H 8.780953 -1.631472 -16.966802 0
M  V30 48 H 9.494074 5.669826 -6.564173 0
M  V30 49 H 11.724388 9.750741 -10.131164 0
M  V30 50 H 3.749656 0.166586 -15.893656 0
M  V30 51 H 4.379105 -0.630691 -14.482745 0
M  V30 52 H 3.833273 0.970629 -14.352116 0
M  V30 53 H 9.081353 8.574343 -11.219518 0
M  V30 54 H 10.634912 8.169309 -11.887840 0
M  V30 55 H 7.501668 3.009313 -14.711720 0
M  V30 56 H 5.834615 3.249578 -14.289640 0
M  V30 57 H 5.938302 -1.286634 -13.090847 0
M  V30 58 H 8.295647 1.022857 -16.335184 0
M  V30 59 H 6.272024 2.993074 -11.906230 0
M  V30 60 H 7.959826 2.541993 -12.292223 0
M  V30 61 H 5.624060 -2.910642 -18.176163 0
M  V30 62 H 7.041269 -2.068059 -18.303416 0
M  V30 63 H 5.834852 1.610094 -15.974220 0
M  V30 64 H 7.188895 4.473075 -10.175858 0
M  V30 65 H 8.781845 3.944194 -10.689830 0
M  V30 66 H 8.246572 6.033854 -8.377700 0
M  V30 67 H 9.646801 5.077862 -8.860006 0
M  V30 68 H 4.886333 -1.664839 -16.453043 0
M  V30 69 H 5.175133 -0.612319 -17.818437 0
M  V30 70 H 6.945654 1.628139 -20.169669 0
M  V30 71 H 6.627912 2.094474 -17.844537 0
M  V30 72 H 10.345125 5.985981 -4.287754 0
M  V30 73 H 10.680597 6.729530 -2.086289 0
M  V30 74 H 12.010403 5.820548 -2.834573 0
M  V30 75 H 12.335141 6.894824 -1.491477 0
M  V30 76 H 6.723206 -2.955051 -16.942718 0
M  V30 77 H 7.845717 6.699682 -10.410667 0
M  V30 78 H 7.496294 0.875017 -14.169623 0
M  V30 END ATOM
M  V30 BEGIN BOND
M  V30 1 1 4 1
M  V30 2 2 5 2
M  V30 3 2 7 6
M  V30 4 1 11 10
M  V30 5 2 12 9
M  V30 6 1 13 7
M  V30 7 1 15 9
M  V30 8 1 17 1
M  V30 9 1 17 9
M  V30 10 1 18 10
M  V30 11 1 19 2
M  V30 12 2 19 15
M  V30 13 1 20 11
M  V30 14 1 22 8
M  V30 15 1 22 13
M  V30 16 1 23 5
M  V30 17 1 24 3
M  V30 18 1 24 18
M  V30 19 1 26 8
M  V30 20 1 26 10
M  V30 21 1 26 16
M  V30 22 1 27 5
M  V30 23 1 28 3
M  V30 24 1 28 4
M  V30 25 1 29 2
M  V30 26 1 29 12
M  V30 27 2 29 14
M  V30 28 1 30 4
M  V30 29 1 30 12
M  V30 30 1 31 8
M  V30 31 1 31 25
M  V30 32 1 32 6
M  V30 33 1 33 22
M  V30 34 2 33 32
M  V30 35 2 34 21
M  V30 36 1 34 23
M  V30 37 1 35 14
M  V30 38 2 35 23
M  V30 39 1 36 34
M  V30 40 1 37 1
M  V30 41 1 38 1
M  V30 42 1 39 3
M  V30 43 1 40 3
M  V30 44 1 41 6
M  V30 45 1 42 7
M  V30 46 1 8 43 CFG=1
M  V30 47 1 44 11
M  V30 48 1 45 11
M  V30 49 1 46 13
M  V30 50 1 47 13
M  V30 51 1 48 14
M  V30 52 1 49 15
M  V30 53 1 50 16
M  V30 54 1 51 16
M  V30 55 1 52 16
M  V30 56 1 53 17
M  V30 57 1 54 17
M  V30 58 1 55 18
M  V30 59 1 56 18
M  V30 60 1 57 20
M  V30 61 1 22 58 CFG=1
M  V30 62 1 59 24
M  V30 63 1 60 24
M  V30 64 1 61 25
M  V30 65 1 62 25
M  V30 66 1 26 63 CFG=3
M  V30 67 1 64 28
M  V30 68 1 65 28
M  V30 69 1 66 30
M  V30 70 1 67 30
M  V30 71 1 68 31
M  V30 72 1 69 31
M  V30 73 1 70 32
M  V30 74 1 71 33
M  V30 75 1 72 35
M  V30 76 1 73 36
M  V30 77 1 74 36
M  V30 78 1 75 36
M  V30 79 1 76 25
M  V30 80 1 4 77 CFG=1
M  V30 81 1 10 78 CFG=3
M  V30 END BOND
M  V30 END CTAB
M  END
>  <i_epik_Tot_Q>  (1) 
2

>  <i_epik_Tot_abs_Q>  (1) 
4

>  <i_i_glide_confnum>  (1) 
176

>  <i_i_glide_lignum>  (1) 
156

>  <i_i_glide_posenum>  (1) 
268

>  <i_i_glide_rotatable_bonds>  (1) 
12

>  <i_lp_mmshare_version>  (1) 
72125

>  <i_m_source_file_index>  (1) 
77

>  <i_f3d_flags>  (1) 
0

>  <num_sample>  (1) 
100

>  <b_lp_Chiralities_Consistent>  (1) 
1

>  <r_epik_Charging_Adjusted_Penalty>  (1) 
2.7385366295040585

>  <r_epik_Ionization_Penalty>  (1) 
1.4403839023663505

>  <r_epik_Ionization_Penalty_Charging>  (1) 
1.4088334024277234

>  <r_epik_Ionization_Penalty_Neutral>  (1) 
0.03155049993862722

>  <r_epik_State_Penalty>  (1) 
1.3297032270763354

>  <r_glide_ring_energy>  (1) 
0.68305203791256597

>  <r_i_docking_score>  (1) 
-5.7815865774806987

>  <r_i_glide_ecoul>  (1) 
-15.454575381054036

>  <r_i_glide_eff_state_penalty>  (1) 
1.3297032270763354

>  <r_i_glide_einternal>  (1) 
6.8253878857095529

>  <r_i_glide_emodel>  (1) 
-64.688647040173848

>  <r_i_glide_emodel_strain>  (1) 
1.5210957668742822

>  <r_i_glide_energy>  (1) 
-39.315226980432989

>  <r_i_glide_erotb>  (1) 
0.66625950385389887

>  <r_i_glide_esite>  (1) 
-0.10539369292025512

>  <r_i_glide_evdw>  (1) 
-23.860651599378954

>  <r_i_glide_gscore>  (1) 
-7.1112898045570336

>  <r_i_glide_gscore_strain>  (1) 
0

>  <r_i_glide_hbond>  (1) 
-0.35137033493889558

>  <r_i_glide_ligand_efficiency>  (1) 
-0.16059962715224163

>  <r_i_glide_ligand_efficiency_ln>  (1) 
-1.2613859907881475

>  <r_i_glide_ligand_efficiency_sa>  (1) 
-0.5302882850563041

>  <r_i_glide_lipo>  (1) 
-2.1459273791575009

>  <r_i_glide_metal>  (1) 
-0

>  <r_i_glide_rewards>  (1) 
-1.6636390142672266

>  <r_lp_Energy>  (1) 
77.340654000000001

>  <r_lp_tautomer_probability>  (1) 
0.99995000000000001

>  <s_epik_Chemistry_Notes>  (1) 
This compound contains an acetal/aminal-like group ( X-CH(R)-Y where X, Y are N, S, or O) that may be acid/base labile, releasing an aldehyde.

>  <s_epik_cmdline>  (1) 
J2VwaWtfcHl0aG9uJywgJy1waHQnLCAnMS4wJywgJy1waCcsICc3LjQnLCAnLXRuJywgJzgnLCAnLW1hJywgJzUwMCcsICctaW1hZScsICc8aW5maWxlLm1hZT4nLCAnLW9tYWUnLCAnPG91dGZpbGUubWFlPic=

>  <s_epik_input>  (1) 
Tz1DKFtDSDNdKWMoYzFbT0hdKVtjSF1bY0hdYyhjMTIpYzNjKFtjSF1uMilbQ0gyXVtDSDJdTihbQ0gyXTMpW0NIMl1bQ0gyXVtDSDJdW0NIMl1OKFtDSDJdW09IXSlbQ0BIXShbQ0gzXSlbQ0BASF0oW0NIMl1bTkgyXSlbQ0BIXTRbQ0gyXVtDSF09W0NIXVtDSF09W0NIXTQ=

>  <s_glide_docking_method>  (1) 
confgen

>  <s_i_glide_gridfile>  (1) 
gpcr_drd2_6luq_protein_autoprepared_prepared

>  <s_lp_Force_Field>  (1) 
S-OPLS

>  <s_lp_Variant>  (1) 
DiffSBDD_76_num_sample_100-5

>  <s_m_source_file>  (1) 
generated__ligand_DiffSBDD_2026-05-06_prepared.sdf

>  <GenAI_Model>  (1) 
DiffSBDD

>  <Protein>  (1) 
generic_title2

$$$$
DiffSBDD_76_num_sample_100
     RDKit          3D

  0  0  0  0  0  0  0  0  0  0999 V3000
M  V30 BEGIN CTAB
M  V30 COUNTS 77 80 0 0 1
M  V30 BEGIN ATOM
M  V30 1 C 8.350907 3.123751 -15.591305 0
M  V30 2 C 7.744870 6.203088 -19.487133 0
M  V30 3 C 7.270851 5.459552 -12.826233 0
M  V30 4 N 7.646821 4.215014 -14.894568 0 CFG=1 CHG=1
M  V30 5 C 7.125902 6.995973 -20.497416 0
M  V30 6 C 11.465557 7.578642 -4.593592 0
M  V30 7 C 11.324392 6.401844 -5.207668 0
M  V30 8 C 11.051775 7.575687 -8.974694 0 CFG=1
M  V30 9 C 8.877692 4.620757 -17.498899 0
M  V30 10 N 9.935476 7.617246 -11.314444 0
M  V30 11 C 10.872306 6.566556 -11.716129 0
M  V30 12 C 7.700942 5.312037 -17.206627 0
M  V30 13 C 11.146553 6.260579 -6.713625 0
M  V30 14 C 5.863905 6.747813 -17.978624 0
M  V30 15 C 9.452393 4.772222 -18.765868 0
M  V30 16 C 9.079102 9.022020 -9.490366 0
M  V30 17 C 9.491889 3.700753 -16.467510 0
M  V30 18 C 8.645041 7.468235 -12.010377 0
M  V30 19 N 8.926417 5.561051 -19.722648 0
M  V30 20 O 11.104531 6.570167 -13.091830 0
M  V30 21 O 5.668978 8.720255 -22.437889 0
M  V30 22 C 10.736300 7.575485 -7.431304 0 CFG=1
M  V30 23 C 5.872480 7.654999 -20.245375 0
M  V30 24 C 7.840587 6.200732 -11.635870 0
M  V30 25 N 13.467399 8.177727 -8.956048 0 CHG=1
M  V30 26 C 9.753653 7.697021 -9.840854 0 CFG=2
M  V30 27 O 7.743140 7.116573 -21.717369 0 CHG=-1
M  V30 28 C 8.333110 4.848712 -13.762187 0
M  V30 29 C 7.095841 6.097017 -18.218755 0
M  V30 30 C 7.076642 5.194092 -15.829522 0
M  V30 31 C 12.141923 8.590089 -9.415790 0
M  V30 32 C 11.422824 8.810286 -5.325809 0
M  V30 33 C 11.104908 8.833795 -6.626743 0
M  V30 34 C 5.199162 8.512612 -21.320850 0
M  V30 35 C 5.254914 7.507934 -18.980677 0
M  V30 36 C 3.851194 9.141372 -20.950316 0
M  V30 37 H 8.634839 2.368068 -14.863964 0
M  V30 38 H 7.640018 2.605486 -16.236057 0
M  V30 39 H 6.616315 4.669604 -12.456629 0
M  V30 40 H 6.611320 6.161089 -13.335910 0
M  V30 41 H 11.619645 7.603191 -3.524319 0
M  V30 42 H 11.363951 5.490524 -4.632235 0
M  V30 43 H 11.431549 6.576900 -9.179280 0
M  V30 44 H 10.464922 5.586344 -11.493027 0
M  V30 45 H 11.860053 6.702926 -11.289575 0
M  V30 46 H 10.417758 5.483925 -6.941568 0
M  V30 47 H 12.105158 5.912958 -7.085297 0
M  V30 48 H 5.374456 6.653515 -17.022272 0
M  V30 49 H 10.359686 4.246716 -19.021580 0
M  V30 50 H 8.652132 9.022099 -8.489556 0
M  V30 51 H 9.843534 9.769761 -9.491264 0
M  V30 52 H 8.290870 9.370068 -10.157541 0
M  V30 53 H 10.019059 2.891956 -16.975707 0
M  V30 54 H 10.222593 4.247414 -15.869122 0
M  V30 55 H 8.005187 8.334007 -11.859411 0
M  V30 56 H 8.821855 7.505802 -13.079318 0
M  V30 57 H 11.421808 5.711283 -13.360049 0
M  V30 58 H 9.652196 7.551724 -7.330164 0
M  V30 59 H 8.376529 5.500408 -10.995133 0
M  V30 60 H 6.962021 6.527610 -11.091044 0
M  V30 61 H 14.132074 8.896431 -9.227095 0
M  V30 62 H 13.449083 8.089973 -7.948859 0
M  V30 63 H 9.093723 6.889164 -9.523363 0
M  V30 64 H 9.013375 5.599063 -14.157566 0
M  V30 65 H 8.937601 4.120206 -13.221523 0
M  V30 66 H 6.232554 4.593177 -15.932053 0
M  V30 67 H 6.804403 6.161144 -15.413050 0
M  V30 68 H 12.198347 8.679261 -10.498573 0
M  V30 69 H 11.950156 9.604266 -9.070731 0
M  V30 70 H 11.643918 9.737379 -4.816103 0
M  V30 71 H 11.073739 9.769338 -7.139554 0
M  V30 72 H 4.312779 7.982073 -18.771267 0
M  V30 73 H 3.718065 10.048148 -21.540924 0
M  V30 74 H 3.039688 8.471249 -21.216733 0
M  V30 75 H 3.754189 9.424293 -19.908137 0
M  V30 76 H 13.726732 7.301590 -9.378467 0
M  V30 77 H 6.849014 3.770207 -14.461172 0
M  V30 END ATOM
M  V30 BEGIN BOND
M  V30 1 1 4 1
M  V30 2 2 5 2
M  V30 3 2 7 6
M  V30 4 1 11 10
M  V30 5 2 12 9
M  V30 6 1 13 7
M  V30 7 1 15 9
M  V30 8 1 17 1
M  V30 9 1 17 9
M  V30 10 1 18 10
M  V30 11 1 19 2
M  V30 12 2 19 15
M  V30 13 1 20 11
M  V30 14 1 22 8
M  V30 15 1 22 13
M  V30 16 1 23 5
M  V30 17 1 24 3
M  V30 18 1 24 18
M  V30 19 1 26 8
M  V30 20 1 26 10
M  V30 21 1 26 16
M  V30 22 1 27 5
M  V30 23 1 28 3
M  V30 24 1 28 4
M  V30 25 1 29 2
M  V30 26 1 29 12
M  V30 27 2 29 14
M  V30 28 1 30 4
M  V30 29 1 30 12
M  V30 30 1 31 8
M  V30 31 1 31 25
M  V30 32 1 32 6
M  V30 33 1 33 22
M  V30 34 2 33 32
M  V30 35 2 34 21
M  V30 36 1 34 23
M  V30 37 1 35 14
M  V30 38 2 35 23
M  V30 39 1 36 34
M  V30 40 1 37 1
M  V30 41 1 38 1
M  V30 42 1 39 3
M  V30 43 1 40 3
M  V30 44 1 41 6
M  V30 45 1 42 7
M  V30 46 1 8 43 CFG=3
M  V30 47 1 44 11
M  V30 48 1 45 11
M  V30 49 1 46 13
M  V30 50 1 47 13
M  V30 51 1 48 14
M  V30 52 1 49 15
M  V30 53 1 50 16
M  V30 54 1 51 16
M  V30 55 1 52 16
M  V30 56 1 53 17
M  V30 57 1 54 17
M  V30 58 1 55 18
M  V30 59 1 56 18
M  V30 60 1 57 20
M  V30 61 1 22 58 CFG=3
M  V30 62 1 59 24
M  V30 63 1 60 24
M  V30 64 1 61 25
M  V30 65 1 62 25
M  V30 66 1 26 63 CFG=1
M  V30 67 1 64 28
M  V30 68 1 65 28
M  V30 69 1 66 30
M  V30 70 1 67 30
M  V30 71 1 68 31
M  V30 72 1 69 31
M  V30 73 1 70 32
M  V30 74 1 71 33
M  V30 75 1 72 35
M  V30 76 1 73 36
M  V30 77 1 74 36
M  V30 78 1 75 36
M  V30 79 1 76 25
M  V30 80 1 4 77 CFG=1
M  V30 END BOND
M  V30 END CTAB
M  END
>  <i_epik_Tot_Q>  (1) 
1

>  <i_epik_Tot_abs_Q>  (1) 
3

>  <i_i_glide_confnum>  (1) 
843

>  <i_i_glide_lignum>  (1) 
152

>  <i_i_glide_posenum>  (1) 
168

>  <i_i_glide_rotatable_bonds>  (1) 
12

>  <i_lp_mmshare_version>  (1) 
72125

>  <i_m_source_file_index>  (1) 
77

>  <i_f3d_flags>  (1) 
0

>  <num_sample>  (1) 
100

>  <b_lp_Chiralities_Consistent>  (1) 
1

>  <r_epik_Charging_Adjusted_Penalty>  (1) 
0.19513752508682314

>  <r_epik_Ionization_Penalty>  (1) 
0.12765993639139714

>  <r_epik_Ionization_Penalty_Charging>  (1) 
0.058121654325050918

>  <r_epik_Ionization_Penalty_Neutral>  (1) 
0.069538282066346213

>  <r_epik_State_Penalty>  (1) 
0.13701587076177221

>  <r_glide_ring_energy>  (1) 
0.68305203791256597

>  <r_i_docking_score>  (1) 
-5.7803400799612676

>  <r_i_glide_ecoul>  (1) 
-5.2816099278940207

>  <r_i_glide_eff_state_penalty>  (1) 
0.13701587076177221

>  <r_i_glide_einternal>  (1) 
21.966998411840848

>  <r_i_glide_emodel>  (1) 
-29.502714383904433

>  <r_i_glide_emodel_strain>  (1) 
3.6394554517630695

>  <r_i_glide_energy>  (1) 
-28.532270825151404

>  <r_i_glide_erotb>  (1) 
0.66875336800380736

>  <r_i_glide_esite>  (1) 
-0.0060455099375456359

>  <r_i_glide_evdw>  (1) 
-23.250660897257383

>  <r_i_glide_gscore>  (1) 
-5.9173559507230395

>  <r_i_glide_gscore_strain>  (1) 
0

>  <r_i_glide_hbond>  (1) 
-0.32000000000000001

>  <r_i_glide_ligand_efficiency>  (1) 
-0.16056500222114634

>  <r_i_glide_ligand_efficiency_ln>  (1) 
-1.261114038705879

>  <r_i_glide_ligand_efficiency_sa>  (1) 
-0.53017395605282935

>  <r_i_glide_lipo>  (1) 
-3.0663042434651118

>  <r_i_glide_metal>  (1) 
-0

>  <r_i_glide_rewards>  (1) 
-1.2389850312772166

>  <r_lp_Energy>  (1) 
69.514248999999992

>  <r_lp_tautomer_probability>  (1) 
0.99995000000000001

>  <s_epik_Chemistry_Notes>  (1) 
This compound contains an acetal/aminal-like group ( X-CH(R)-Y where X, Y are N, S, or O) that may be acid/base labile, releasing an aldehyde.

>  <s_epik_cmdline>  (1) 
J2VwaWtfcHl0aG9uJywgJy1waHQnLCAnMS4wJywgJy1waCcsICc3LjQnLCAnLXRuJywgJzgnLCAnLW1hJywgJzUwMCcsICctaW1hZScsICc8aW5maWxlLm1hZT4nLCAnLW9tYWUnLCAnPG91dGZpbGUubWFlPic=

>  <s_epik_input>  (1) 
Tz1DKFtDSDNdKWMoYzFbT0hdKVtjSF1bY0hdYyhjMTIpYzNjKFtjSF1uMilbQ0gyXVtDSDJdTihbQ0gyXTMpW0NIMl1bQ0gyXVtDSDJdW0NIMl1OKFtDSDJdW09IXSlbQ0BIXShbQ0gzXSlbQ0BASF0oW0NIMl1bTkgyXSlbQ0BIXTRbQ0gyXVtDSF09W0NIXVtDSF09W0NIXTQ=

>  <s_glide_docking_method>  (1) 
confgen

>  <s_i_glide_gridfile>  (1) 
gpcr_drd2_6luq_protein_autoprepared_prepared

>  <s_lp_Force_Field>  (1) 
S-OPLS

>  <s_lp_Variant>  (1) 
DiffSBDD_76_num_sample_100-1

>  <s_m_source_file>  (1) 
generated__ligand_DiffSBDD_2026-05-06_prepared.sdf

>  <GenAI_Model>  (1) 
DiffSBDD

>  <Protein>  (1) 
generic_title2

$$$$
DiffSBDD_38_num_sample_100
     RDKit          3D

  0  0  0  0  0  0  0  0  0  0999 V3000
M  V30 BEGIN CTAB
M  V30 COUNTS 50 52 0 0 1
M  V30 BEGIN ATOM
M  V30 1 C 8.527300 4.012309 -11.265510 0
M  V30 2 S 9.434824 7.817208 -11.518606 0
M  V30 3 C 10.564488 8.152381 -6.837664 0
M  V30 4 C 11.484558 7.400138 -7.826685 0
M  V30 5 N 6.640016 0.842926 -13.838213 0 CHG=1
M  V30 6 C 12.106342 7.809217 -3.394315 0
M  V30 7 C 7.577130 3.165572 -13.526001 0
M  V30 8 O 11.174787 6.169303 -4.907111 0
M  V30 9 C 12.185471 9.382186 -3.643249 0
M  V30 10 C 7.782111 1.644967 -13.343081 0
M  V30 11 C 8.799412 5.433358 -10.952472 0
M  V30 12 C 9.740215 7.327619 -9.753058 0 CFG=1
M  V30 13 N 11.188231 8.331855 -5.513331 0
M  V30 14 C 9.434852 5.869491 -9.880986 0
M  V30 15 C 8.383367 6.378662 -11.979356 0 CFG=2
M  V30 16 C 11.559643 9.493750 -5.039271 0
M  V30 17 C 8.709399 5.551948 -13.235242 0 CFG=2
M  V30 18 O 11.434938 10.569295 -5.619537 0
M  V30 19 O 7.834718 5.900544 -14.291599 0
M  V30 20 C 8.648033 4.033358 -12.813592 0 CFG=1
M  V30 21 C 11.434837 7.343369 -4.691684 0
M  V30 22 C 6.567740 0.704129 -15.306600 0
M  V30 23 C 11.175913 7.661133 -9.314207 0
M  V30 24 H 7.516852 3.769371 -10.939826 0
M  V30 25 H 9.263102 3.369298 -10.786856 0
M  V30 26 H 10.286947 9.113637 -7.266143 0
M  V30 27 H 9.622170 7.612662 -6.723808 0
M  V30 28 H 11.434810 6.330503 -7.619487 0
M  V30 29 H 12.519432 7.696393 -7.650903 0
M  V30 30 H 6.715563 -0.091062 -13.457107 0
M  V30 31 H 11.503771 7.550904 -2.522862 0
M  V30 32 H 13.096733 7.366165 -3.289825 0
M  V30 33 H 6.586961 3.462424 -13.177640 0
M  V30 34 H 7.599218 3.377942 -14.595082 0
M  V30 35 H 11.605058 9.943095 -2.909934 0
M  V30 36 H 13.213185 9.744878 -3.647937 0
M  V30 37 H 8.700468 1.316286 -13.828646 0
M  V30 38 H 7.904608 1.407185 -12.291674 0
M  V30 39 H 9.034838 7.816359 -9.090514 0
M  V30 40 H 9.781101 5.196341 -9.110616 0
M  V30 41 H 7.319019 6.585284 -11.855438 0
M  V30 42 H 9.729907 5.770239 -13.553541 0
M  V30 43 H 7.898864 6.833476 -14.434088 0
M  V30 44 H 9.623517 3.619320 -13.067238 0
M  V30 45 H 5.703518 0.096606 -15.577998 0
M  V30 46 H 6.465414 1.673098 -15.795372 0
M  V30 47 H 7.460626 0.212305 -15.694351 0
M  V30 48 H 11.888372 7.117214 -9.933708 0
M  V30 49 H 11.359462 8.717117 -9.517769 0
M  V30 50 H 5.780154 1.248441 -13.496813 0
M  V30 END ATOM
M  V30 BEGIN BOND
M  V30 1 1 4 3
M  V30 2 1 9 6
M  V30 3 1 10 5
M  V30 4 1 10 7
M  V30 5 1 11 1
M  V30 6 1 12 2
M  V30 7 1 13 3
M  V30 8 2 14 11
M  V30 9 1 14 12
M  V30 10 1 15 2
M  V30 11 1 15 11
M  V30 12 1 16 9
M  V30 13 1 16 13
M  V30 14 1 17 15
M  V30 15 2 18 16
M  V30 16 1 19 17
M  V30 17 1 20 1
M  V30 18 1 20 7
M  V30 19 1 20 17
M  V30 20 1 21 6
M  V30 21 2 21 8
M  V30 22 1 21 13
M  V30 23 1 22 5
M  V30 24 1 23 4
M  V30 25 1 23 12
M  V30 26 1 24 1
M  V30 27 1 25 1
M  V30 28 1 26 3
M  V30 29 1 27 3
M  V30 30 1 28 4
M  V30 31 1 29 4
M  V30 32 1 30 5
M  V30 33 1 31 6
M  V30 34 1 32 6
M  V30 35 1 33 7
M  V30 36 1 34 7
M  V30 37 1 35 9
M  V30 38 1 36 9
M  V30 39 1 37 10
M  V30 40 1 38 10
M  V30 41 1 12 39 CFG=1
M  V30 42 1 40 14
M  V30 43 1 15 41 CFG=1
M  V30 44 1 17 42 CFG=3
M  V30 45 1 43 19
M  V30 46 1 20 44 CFG=1
M  V30 47 1 45 22
M  V30 48 1 46 22
M  V30 49 1 47 22
M  V30 50 1 48 23
M  V30 51 1 49 23
M  V30 52 1 50 5
M  V30 END BOND
M  V30 END CTAB
M  END
>  <i_epik_Tot_Q>  (1) 
1

>  <i_epik_Tot_abs_Q>  (1) 
1

>  <i_i_glide_confnum>  (1) 
143

>  <i_i_glide_lignum>  (1) 
68

>  <i_i_glide_posenum>  (1) 
39

>  <i_i_glide_rotatable_bonds>  (1) 
8

>  <i_lp_mmshare_version>  (1) 
72125

>  <i_m_source_file_index>  (1) 
39

>  <i_f3d_flags>  (1) 
0

>  <num_sample>  (1) 
100

>  <b_lp_Chiralities_Consistent>  (1) 
1

>  <r_epik_Charging_Adjusted_Penalty>  (1) 
0.00073389509714513615

>  <r_epik_Ionization_Penalty>  (1) 
0.00073402386584221085

>  <r_epik_Ionization_Penalty_Charging>  (1) 
0.00073389509714513615

>  <r_epik_Ionization_Penalty_Neutral>  (1) 
1.2876869707468429e-07

>  <r_epik_State_Penalty>  (1) 
-0

>  <r_glide_ring_energy>  (1) 
0

>  <r_i_docking_score>  (1) 
-5.7786247578464023

>  <r_i_glide_ecoul>  (1) 
-1.4268391216184262

>  <r_i_glide_eff_state_penalty>  (1) 
-0

>  <r_i_glide_einternal>  (1) 
6.6231278167137333

>  <r_i_glide_emodel>  (1) 
-47.057681229070134

>  <r_i_glide_emodel_strain>  (1) 
0.37904054499597351

>  <r_i_glide_energy>  (1) 
-35.607445673183534

>  <r_i_glide_erotb>  (1) 
0.82107344862339093

>  <r_i_glide_esite>  (1) 
0

>  <r_i_glide_evdw>  (1) 
-34.180606551565106

>  <r_i_glide_gscore>  (1) 
-5.7786247578464023

>  <r_i_glide_gscore_strain>  (1) 
0

>  <r_i_glide_hbond>  (1) 
0

>  <r_i_glide_ligand_efficiency>  (1) 
-0.251244554688974

>  <r_i_glide_ligand_efficiency_ln>  (1) 
-1.3973238641196066

>  <r_i_glide_ligand_efficiency_sa>  (1) 
-0.71450609294748402

>  <r_i_glide_lipo>  (1) 
-1.939033972683504

>  <r_i_glide_metal>  (1) 
-0

>  <r_i_glide_rewards>  (1) 
-2.7376080379652707

>  <r_lp_Energy>  (1) 
9.7708929999999992

>  <r_lp_tautomer_probability>  (1) 
1

>  <s_epik_cmdline>  (1) 
J2VwaWtfcHl0aG9uJywgJy1waHQnLCAnMS4wJywgJy1waCcsICc3LjQnLCAnLXRuJywgJzgnLCAnLW1hJywgJzUwMCcsICctaW1hZScsICc8aW5maWxlLm1hZT4nLCAnLW9tYWUnLCAnPG91dGZpbGUubWFlPic=

>  <s_epik_input>  (1) 
W0NIM11bTkhdW0NIMl1bQ0gyXVtDQEhdKFtDSDJdMSlbQ0BASF0oW09IXSlbQ0BASF0oQzE9MilTW0NAQEhdKFtDSF0yKVtDSDJdW0NIMl1bQ0gyXU4zQyg9TylbQ0gyXVtDSDJdQzM9Tw==

>  <s_glide_docking_method>  (1) 
confgen

>  <s_i_glide_gridfile>  (1) 
gpcr_drd2_6luq_protein_autoprepared_prepared

>  <s_lp_Force_Field>  (1) 
S-OPLS

>  <s_lp_Variant>  (1) 
DiffSBDD_38_num_sample_100-1

>  <s_m_source_file>  (1) 
generated__ligand_DiffSBDD_2026-05-06_prepared.sdf

>  <GenAI_Model>  (1) 
DiffSBDD

>  <Protein>  (1) 
generic_title2

$$$$
DiffSBDD_72_num_sample_100
     RDKit          3D

  0  0  0  0  0  0  0  0  0  0999 V3000
M  V30 BEGIN CTAB
M  V30 COUNTS 32 34 0 0 1
M  V30 BEGIN ATOM
M  V30 1 C 8.803621 5.369299 -9.173576 0
M  V30 2 C 11.437419 7.349805 -4.540183 0
M  V30 3 C 10.664934 7.460306 -9.490783 0
M  V30 4 C 9.502901 5.860737 -8.053780 0
M  V30 5 C 11.223004 7.434764 -7.009166 0 CFG=1
M  V30 6 C 11.097271 8.969309 -6.816252 0
M  V30 7 N 11.038465 6.769744 -5.723157 0
M  V30 8 C 9.034619 5.921381 -10.448885 0
M  V30 9 C 11.453726 6.520552 -3.320992 0
M  V30 10 C 10.440782 6.906806 -8.209679 0
M  V30 11 F 8.363398 5.444887 -11.524231 0
M  V30 12 C 9.960673 6.969291 -10.606219 0
M  V30 13 C 11.884058 9.545033 -5.601952 0
M  V30 14 C 12.041673 7.641795 -2.340727 0
M  V30 15 C 12.259006 9.036634 -3.094541 0
M  V30 16 C 11.834838 8.578950 -4.435405 0
M  V30 17 H 8.088150 4.569351 -9.054449 0
M  V30 18 H 11.380481 8.258694 -9.617750 0
M  V30 19 H 9.321324 5.433285 -7.081473 0
M  V30 20 H 12.262506 7.239332 -7.267372 0
M  V30 21 H 11.434841 9.486966 -7.713025 0
M  V30 22 H 10.040374 9.209565 -6.691676 0
M  V30 23 H 10.460558 6.169307 -3.037843 0
M  V30 24 H 10.134345 7.392598 -11.584239 0
M  V30 25 H 12.929251 9.708800 -5.866212 0
M  V30 26 H 11.467851 10.509384 -5.308257 0
M  V30 27 H 12.989739 7.299434 -1.926223 0
M  V30 28 H 11.371590 7.780882 -1.491709 0
M  V30 29 H 11.607286 9.825267 -2.717527 0
M  V30 30 H 13.297154 9.369157 -3.089088 0
M  V30 31 H 12.137188 5.680341 -3.424653 0
M  V30 32 H 10.778387 5.793270 -5.735217 0
M  V30 END ATOM
M  V30 BEGIN BOND
M  V30 1 2 4 1
M  V30 2 1 6 5
M  V30 3 1 7 2
M  V30 4 1 7 5
M  V30 5 1 8 1
M  V30 6 1 9 2
M  V30 7 2 10 3
M  V30 8 1 10 4
M  V30 9 1 10 5
M  V30 10 1 11 8
M  V30 11 1 12 3
M  V30 12 2 12 8
M  V30 13 1 13 6
M  V30 14 1 14 9
M  V30 15 1 15 14
M  V30 16 2 16 2
M  V30 17 1 16 13
M  V30 18 1 16 15
M  V30 19 1 17 1
M  V30 20 1 18 3
M  V30 21 1 19 4
M  V30 22 1 5 20 CFG=3
M  V30 23 1 21 6
M  V30 24 1 22 6
M  V30 25 1 23 9
M  V30 26 1 24 12
M  V30 27 1 25 13
M  V30 28 1 26 13
M  V30 29 1 27 14
M  V30 30 1 28 14
M  V30 31 1 29 15
M  V30 32 1 30 15
M  V30 33 1 31 9
M  V30 34 1 32 7
M  V30 END BOND
M  V30 END CTAB
M  END
>  <i_epik_Tot_Q>  (1) 
0

>  <i_epik_Tot_abs_Q>  (1) 
0

>  <i_i_glide_confnum>  (1) 
2

>  <i_i_glide_lignum>  (1) 
144

>  <i_i_glide_posenum>  (1) 
181

>  <i_i_glide_rotatable_bonds>  (1) 
1

>  <i_lp_mmshare_version>  (1) 
72125

>  <i_m_source_file_index>  (1) 
73

>  <i_f3d_flags>  (1) 
0

>  <num_sample>  (1) 
100

>  <b_lp_Chiralities_Consistent>  (1) 
1

>  <r_epik_Charging_Adjusted_Penalty>  (1) 
0.00012261153731157732

>  <r_epik_Ionization_Penalty>  (1) 
0.00096767274994002245

>  <r_epik_Ionization_Penalty_Charging>  (1) 
0.00012261153731157732

>  <r_epik_Ionization_Penalty_Neutral>  (1) 
0.00084506121262844516

>  <r_epik_State_Penalty>  (1) 
-0

>  <r_glide_ring_energy>  (1) 
0

>  <r_i_docking_score>  (1) 
-5.7759029065548928

>  <r_i_glide_ecoul>  (1) 
-0.10107905172967868

>  <r_i_glide_eff_state_penalty>  (1) 
-0

>  <r_i_glide_einternal>  (1) 
0.53505091943928351

>  <r_i_glide_emodel>  (1) 
-41.233222802223828

>  <r_i_glide_emodel_strain>  (1) 
0.21414192592534675

>  <r_i_glide_energy>  (1) 
-30.356412718965984

>  <r_i_glide_erotb>  (1) 
0.35536468767402363

>  <r_i_glide_esite>  (1) 
-0.018195694423798821

>  <r_i_glide_evdw>  (1) 
-30.255333667236307

>  <r_i_glide_gscore>  (1) 
-5.7759029065548928

>  <r_i_glide_gscore_strain>  (1) 
0

>  <r_i_glide_hbond>  (1) 
0

>  <r_i_glide_ligand_efficiency>  (1) 
-0.3609939316596808

>  <r_i_glide_ligand_efficiency_ln>  (1) 
-1.5310184416619224

>  <r_i_glide_ligand_efficiency_sa>  (1) 
-0.90964770676468631

>  <r_i_glide_lipo>  (1) 
-1.8947651950301507

>  <r_i_glide_metal>  (1) 
-0

>  <r_i_glide_rewards>  (1) 
-2.6903781636536994

>  <r_lp_Energy>  (1) 
12.197267

>  <r_lp_tautomer_probability>  (1) 
1

>  <s_epik_Chemistry_Notes>  (1) 
This compound has an imine and may undergo hydrolysis.

>  <s_epik_cmdline>  (1) 
J2VwaWtfcHl0aG9uJywgJy1waHQnLCAnMS4wJywgJy1waCcsICc3LjQnLCAnLXRuJywgJzgnLCAnLW1hJywgJzUwMCcsICctaW1hZScsICc8aW5maWxlLm1hZT4nLCAnLW9tYWUnLCAnPG91dGZpbGUubWFlPic=

>  <s_epik_input>  (1) 
RmMxW2NIXVtjSF1jKFtjSF1bY0hdMSlbQ0BIXShOMilbQ0gyXVtDSDJdW0NASF0oQz0yMylbQ0gyXVtDSDJdW0NIMl0z

>  <s_glide_docking_method>  (1) 
confgen

>  <s_i_glide_gridfile>  (1) 
gpcr_drd2_6luq_protein_autoprepared_prepared

>  <s_lp_Force_Field>  (1) 
S-OPLS

>  <s_lp_Variant>  (1) 
DiffSBDD_72_num_sample_100-1

>  <s_m_source_file>  (1) 
generated__ligand_DiffSBDD_2026-05-06_prepared.sdf

>  <GenAI_Model>  (1) 
DiffSBDD

>  <Protein>  (1) 
generic_title2

$$$$
DiffSBDD_44_num_sample_100
     RDKit          3D

  0  0  0  0  0  0  0  0  0  0999 V3000
M  V30 BEGIN CTAB
M  V30 COUNTS 56 58 0 0 1
M  V30 BEGIN ATOM
M  V30 1 C 5.474240 5.411040 -13.455431 0
M  V30 2 C 6.801073 5.522379 -14.250626 0 CFG=1
M  V30 3 C 12.060795 8.983109 -4.992424 0
M  V30 4 C 12.109045 7.087121 -2.918355 0
M  V30 5 C 11.434828 6.789221 -4.113947 0
M  V30 6 C 9.645414 6.462299 -10.867362 0
M  V30 7 C 7.313699 4.148471 -14.675701 0
M  V30 8 N 6.696753 6.212937 -15.575102 0 CFG=1 CHG=1
M  V30 9 C 10.518751 7.356387 -9.979439 0
M  V30 10 C 10.754704 8.088629 -7.535942 0
M  V30 11 O 11.471984 9.059027 -7.745174 0
M  V30 12 C 12.758569 8.311440 -2.762835 0
M  V30 13 N 12.131562 6.169312 -1.891721 0
M  V30 14 C 7.602784 3.987447 -16.142429 0
M  V30 15 N 10.687651 7.403657 -6.391255 0
M  V30 16 C 10.019404 6.468449 -12.343214 0
M  V30 17 O 7.556065 7.522540 -13.145797 0
M  V30 18 C 9.346433 6.239507 -7.912873 0
M  V30 19 C 7.073725 5.310576 -16.703267 0
M  V30 20 N 8.985223 5.769269 -13.100071 0
M  V30 21 C 5.478616 7.016330 -15.840525 0
M  V30 22 C 9.851131 7.543920 -8.609174 0 CFG=2
M  V30 23 C 9.875600 6.218049 -6.462131 0
M  V30 24 C 11.403638 7.734512 -5.166349 0
M  V30 25 C 7.820820 6.358475 -13.441740 0
M  V30 26 C 12.739595 9.250033 -3.795442 0
M  V30 27 O 7.480078 3.231667 -13.873408 0
M  V30 28 H 5.603310 4.789787 -12.567686 0
M  V30 29 H 5.125345 6.382246 -13.101402 0
M  V30 30 H 4.667811 4.968860 -14.036054 0
M  V30 31 H 12.053499 9.732059 -5.757232 0
M  V30 32 H 10.938485 5.837392 -4.220961 0
M  V30 33 H 9.669239 5.427789 -10.528365 0
M  V30 34 H 8.612843 6.793129 -10.753508 0
M  V30 35 H 10.622378 8.338042 -10.443661 0
M  V30 36 H 11.530682 6.969293 -9.882386 0
M  V30 37 H 13.282708 8.534224 -1.844537 0
M  V30 38 H 12.643369 6.342279 -1.040717 0
M  V30 39 H 11.682687 5.263489 -1.979521 0
M  V30 40 H 8.674748 3.873732 -16.306096 0
M  V30 41 H 7.080856 3.122537 -16.553800 0
M  V30 42 H 10.136721 7.494779 -12.691435 0
M  V30 43 H 10.976559 5.971240 -12.495350 0
M  V30 44 H 8.256909 6.175148 -7.933359 0
M  V30 45 H 9.717094 5.342933 -8.406275 0
M  V30 46 H 7.830091 5.798177 -17.319675 0
M  V30 47 H 6.221126 5.116342 -17.353708 0
M  V30 48 H 9.156374 4.807526 -13.362720 0
M  V30 49 H 4.603518 6.377500 -15.948935 0
M  V30 50 H 5.297119 7.735446 -15.041128 0
M  V30 51 H 5.591979 7.583129 -16.765478 0
M  V30 52 H 9.034844 8.255835 -8.702343 0
M  V30 53 H 10.537818 5.369323 -6.349422 0
M  V30 54 H 9.076629 6.194105 -5.722703 0
M  V30 55 H 13.252222 10.169441 -3.669415 0
M  V30 56 H 7.444661 6.892851 -15.522984 0
M  V30 END ATOM
M  V30 BEGIN BOND
M  V30 1 1 2 1 CFG=1
M  V30 2 2 5 4
M  V30 3 1 7 2
M  V30 4 1 8 2
M  V30 5 1 9 6
M  V30 6 2 11 10
M  V30 7 1 12 4
M  V30 8 1 13 4
M  V30 9 1 14 7
M  V30 10 1 15 10
M  V30 11 1 16 6
M  V30 12 1 19 8
M  V30 13 1 19 14
M  V30 14 1 20 16
M  V30 15 1 21 8
M  V30 16 1 22 9
M  V30 17 1 22 10
M  V30 18 1 22 18
M  V30 19 1 23 15
M  V30 20 1 23 18
M  V30 21 2 24 3
M  V30 22 1 24 5
M  V30 23 1 24 15
M  V30 24 1 25 2
M  V30 25 2 25 17
M  V30 26 1 25 20
M  V30 27 1 26 3
M  V30 28 2 26 12
M  V30 29 2 27 7
M  V30 30 1 28 1
M  V30 31 1 29 1
M  V30 32 1 30 1
M  V30 33 1 31 3
M  V30 34 1 32 5
M  V30 35 1 33 6
M  V30 36 1 34 6
M  V30 37 1 35 9
M  V30 38 1 36 9
M  V30 39 1 37 12
M  V30 40 1 38 13
M  V30 41 1 39 13
M  V30 42 1 40 14
M  V30 43 1 41 14
M  V30 44 1 42 16
M  V30 45 1 43 16
M  V30 46 1 44 18
M  V30 47 1 45 18
M  V30 48 1 46 19
M  V30 49 1 47 19
M  V30 50 1 48 20
M  V30 51 1 49 21
M  V30 52 1 50 21
M  V30 53 1 51 21
M  V30 54 1 22 52 CFG=3
M  V30 55 1 53 23
M  V30 56 1 54 23
M  V30 57 1 55 26
M  V30 58 1 8 56 CFG=1
M  V30 END BOND
M  V30 END CTAB
M  END
>  <i_epik_Tot_Q>  (1) 
1

>  <i_epik_Tot_abs_Q>  (1) 
1

>  <i_i_glide_confnum>  (1) 
123

>  <i_i_glide_lignum>  (1) 
81

>  <i_i_glide_posenum>  (1) 
239

>  <i_i_glide_rotatable_bonds>  (1) 
7

>  <i_lp_mmshare_version>  (1) 
72125

>  <i_m_source_file_index>  (1) 
45

>  <i_f3d_flags>  (1) 
0

>  <num_sample>  (1) 
100

>  <b_lp_Chiralities_Consistent>  (1) 
1

>  <r_epik_Charging_Adjusted_Penalty>  (1) 
0.87787264938008924

>  <r_epik_Ionization_Penalty>  (1) 
0.44040452980928141

>  <r_epik_Ionization_Penalty_Charging>  (1) 
0.43893632469004462

>  <r_epik_Ionization_Penalty_Neutral>  (1) 
0.0014682051192367804

>  <r_epik_State_Penalty>  (1) 
0.43893632469004457

>  <r_glide_ring_energy>  (1) 
0

>  <r_i_docking_score>  (1) 
-5.7738587504119359

>  <r_i_glide_ecoul>  (1) 
-4.0572955823946799

>  <r_i_glide_eff_state_penalty>  (1) 
0.43893632469004457

>  <r_i_glide_einternal>  (1) 
3.2096860274034036

>  <r_i_glide_emodel>  (1) 
-49.546645212141016

>  <r_i_glide_emodel_strain>  (1) 
1.0137534373727561

>  <r_i_glide_energy>  (1) 
-39.132255322533204

>  <r_i_glide_erotb>  (1) 
0.96983297192060391

>  <r_i_glide_esite>  (1) 
0

>  <r_i_glide_evdw>  (1) 
-35.074959740138524

>  <r_i_glide_gscore>  (1) 
-6.2127950751019805

>  <r_i_glide_gscore_strain>  (1) 
0

>  <r_i_glide_hbond>  (1) 
0

>  <r_i_glide_ligand_efficiency>  (1) 
-0.21384662038562727

>  <r_i_glide_ligand_efficiency_ln>  (1) 
-1.3440591275949345

>  <r_i_glide_ligand_efficiency_sa>  (1) 
-0.64153986115688189

>  <r_i_glide_lipo>  (1) 
-2.518828356222766

>  <r_i_glide_metal>  (1) 
-0

>  <r_i_glide_rewards>  (1) 
-2.3014573664336884

>  <r_lp_Energy>  (1) 
28.974819999999998

>  <r_lp_tautomer_probability>  (1) 
0.99995000000000001

>  <s_epik_cmdline>  (1) 
J2VwaWtfcHl0aG9uJywgJy1waHQnLCAnMS4wJywgJy1waCcsICc3LjQnLCAnLXRuJywgJzgnLCAnLW1hJywgJzUwMCcsICctaW1hZScsICc8aW5maWxlLm1hZT4nLCAnLW9tYWUnLCAnPG91dGZpbGUubWFlPic=

>  <s_epik_input>  (1) 
W0NIM11OMVtDSDJdW0NIMl1DKD1PKVtDQEBdMShbQ0gzXSlDKD1PKVtOSF1bQ0gyXVtDSDJdW0NIMl1bQ0BASF0yW0NIMl1bQ0gyXU4oQzI9TyljKFtjSF1bY0hdW2NIXTMpW2NIXWMzW05IMl0=

>  <s_glide_docking_method>  (1) 
confgen

>  <s_i_glide_gridfile>  (1) 
gpcr_drd2_6luq_protein_autoprepared_prepared

>  <s_lp_Force_Field>  (1) 
S-OPLS

>  <s_lp_Variant>  (1) 
DiffSBDD_44_num_sample_100-6

>  <s_m_source_file>  (1) 
generated__ligand_DiffSBDD_2026-05-06_prepared.sdf

>  <GenAI_Model>  (1) 
DiffSBDD

>  <Protein>  (1) 
generic_title2

$$$$
DiffSBDD_34_num_sample_100
     RDKit          3D

  0  0  0  0  0  0  0  0  0  0999 V3000
M  V30 BEGIN CTAB
M  V30 COUNTS 60 63 0 0 1
M  V30 BEGIN ATOM
M  V30 1 N 7.595119 3.628189 -16.555409 0
M  V30 2 C 5.707661 4.160389 -13.257011 0 CFG=1
M  V30 3 C 10.566155 7.059559 -8.950225 0
M  V30 4 C 11.312243 8.241667 -8.968824 0
M  V30 5 C 6.689933 1.674369 -13.468040 0
M  V30 6 C 12.827836 6.564092 -2.691665 0
M  V30 7 C 6.390336 2.921021 -12.566039 0
M  V30 8 C 7.134762 2.236659 -14.770031 0
M  V30 9 C 11.668085 9.077803 -5.258588 0
M  V30 10 N 11.834861 8.363399 -4.107035 0
M  V30 11 C 9.051815 6.823308 -11.073457 0
M  V30 12 C 10.512994 7.134970 -6.501722 0
M  V30 13 C 10.157814 6.502491 -7.716743 0
M  V30 14 C 11.282182 8.328334 -6.528479 0
M  V30 15 O 12.163823 9.150540 -2.970940 0
M  V30 16 C 5.616900 5.405697 -12.370171 0
M  V30 17 C 11.834606 6.919712 -3.814847 0
M  V30 18 C 5.432215 0.795124 -13.605071 0
M  V30 19 C 11.662216 8.871099 -7.770355 0
M  V30 20 C 7.979090 2.369821 -16.753322 0
M  V30 21 C 6.932897 6.193887 -12.412411 0 CFG=2
M  V30 22 O 7.405156 5.369306 -10.132709 0
M  V30 23 C 7.034766 3.517313 -15.250505 0
M  V30 24 O 11.833881 10.292064 -5.306569 0
M  V30 25 S 7.612478 5.931849 -14.079076 0
M  V30 26 C 10.234854 6.366886 -10.254890 0
M  V30 27 C 7.802127 0.817230 -12.849364 0
M  V30 28 C 7.976944 5.773753 -11.358651 0 CFG=2
M  V30 29 N 7.741754 1.529855 -15.767851 0
M  V30 30 C 6.400256 4.668544 -14.553366 0 CFG=2
M  V30 31 O 8.971859 7.976632 -11.501133 0
M  V30 32 H 4.693989 3.839010 -13.493223 0
M  V30 33 H 11.624927 8.667570 -9.911285 0
M  V30 34 H 12.924538 5.483768 -2.588483 0
M  V30 35 H 12.521125 6.944593 -1.717613 0
M  V30 36 H 13.812886 6.969151 -2.937691 0
M  V30 37 H 7.350005 3.267163 -12.197274 0
M  V30 38 H 5.834975 2.631144 -11.676162 0
M  V30 39 H 10.177716 6.715225 -5.572265 0
M  V30 40 H 9.576037 5.591991 -7.700760 0
M  V30 41 H 12.221378 8.520726 -2.269784 0
M  V30 42 H 4.909294 6.077321 -12.844437 0
M  V30 43 H 5.233209 5.197350 -11.370700 0
M  V30 44 H 10.838287 6.569273 -3.538127 0
M  V30 45 H 12.155948 6.361902 -4.692533 0
M  V30 46 H 5.182246 0.312355 -12.659808 0
M  V30 47 H 5.580175 -0.004738 -14.332821 0
M  V30 48 H 4.551617 1.368164 -13.891617 0
M  V30 49 H 12.234741 9.769292 -7.798421 0
M  V30 50 H 8.454881 2.056716 -17.670574 0
M  V30 51 H 6.688352 7.249108 -12.284731 0
M  V30 52 H 7.035446 6.153027 -9.726560 0
M  V30 53 H 7.964415 0.546127 -15.753461 0
M  V30 54 H 10.157196 5.292785 -10.087044 0
M  V30 55 H 11.068820 6.569386 -10.923571 0
M  V30 56 H 7.481607 0.409289 -11.891667 0
M  V30 57 H 8.710609 1.399465 -12.692072 0
M  V30 58 H 8.058904 -0.024364 -13.492275 0
M  V30 59 H 8.512318 4.904470 -11.734110 0
M  V30 60 H 5.663802 5.157833 -15.193008 0
M  V30 END ATOM
M  V30 BEGIN BOND
M  V30 1 1 4 3
M  V30 2 1 7 2
M  V30 3 1 7 5
M  V30 4 1 8 5
M  V30 5 1 10 9
M  V30 6 2 13 3
M  V30 7 1 13 12
M  V30 8 1 14 9
M  V30 9 2 14 12
M  V30 10 1 15 10
M  V30 11 1 16 2
M  V30 12 1 17 6
M  V30 13 1 17 10
M  V30 14 1 18 5
M  V30 15 2 19 4
M  V30 16 1 19 14
M  V30 17 2 20 1
M  V30 18 1 21 16
M  V30 19 1 23 1
M  V30 20 2 23 8
M  V30 21 2 24 9
M  V30 22 1 25 21
M  V30 23 1 26 3
M  V30 24 1 26 11
M  V30 25 1 27 5
M  V30 26 1 28 11
M  V30 27 1 28 21
M  V30 28 1 28 22
M  V30 29 1 29 8
M  V30 30 1 29 20
M  V30 31 1 30 2
M  V30 32 1 30 23
M  V30 33 1 30 25
M  V30 34 2 31 11
M  V30 35 1 2 32 CFG=3
M  V30 36 1 33 4
M  V30 37 1 34 6
M  V30 38 1 35 6
M  V30 39 1 36 6
M  V30 40 1 37 7
M  V30 41 1 38 7
M  V30 42 1 39 12
M  V30 43 1 40 13
M  V30 44 1 41 15
M  V30 45 1 42 16
M  V30 46 1 43 16
M  V30 47 1 44 17
M  V30 48 1 45 17
M  V30 49 1 46 18
M  V30 50 1 47 18
M  V30 51 1 48 18
M  V30 52 1 49 19
M  V30 53 1 50 20
M  V30 54 1 21 51 CFG=1
M  V30 55 1 52 22
M  V30 56 1 53 29
M  V30 57 1 54 26
M  V30 58 1 55 26
M  V30 59 1 56 27
M  V30 60 1 57 27
M  V30 61 1 58 27
M  V30 62 1 28 59 CFG=3
M  V30 63 1 30 60 CFG=3
M  V30 END BOND
M  V30 END CTAB
M  END
>  <i_epik_Tot_Q>  (1) 
0

>  <i_epik_Tot_abs_Q>  (1) 
0

>  <i_i_glide_confnum>  (1) 
34

>  <i_i_glide_lignum>  (1) 
62

>  <i_i_glide_posenum>  (1) 
188

>  <i_i_glide_rotatable_bonds>  (1) 
9

>  <i_lp_mmshare_version>  (1) 
72125

>  <i_m_source_file_index>  (1) 
35

>  <i_f3d_flags>  (1) 
0

>  <num_sample>  (1) 
100

>  <b_lp_Chiralities_Consistent>  (1) 
1

>  <r_epik_Charging_Adjusted_Penalty>  (1) 
1.8315475384043096

>  <r_epik_Ionization_Penalty>  (1) 
0.90357436971334326

>  <r_epik_Ionization_Penalty_Charging>  (1) 
0.88195505593321366

>  <r_epik_Ionization_Penalty_Neutral>  (1) 
0.021619313780129622

>  <r_epik_State_Penalty>  (1) 
0.94959248247109596

>  <r_glide_ring_energy>  (1) 
0

>  <r_i_docking_score>  (1) 
-5.7634363691573904

>  <r_i_glide_ecoul>  (1) 
-4.4341083806030124

>  <r_i_glide_eff_state_penalty>  (1) 
0.94959248247109596

>  <r_i_glide_einternal>  (1) 
17.384653368959448

>  <r_i_glide_emodel>  (1) 
-50.35683305574419

>  <r_i_glide_emodel_strain>  (1) 
0.70440184796997585

>  <r_i_glide_energy>  (1) 
-42.773590409415959

>  <r_i_glide_erotb>  (1) 
0.6096786253841594

>  <r_i_glide_esite>  (1) 
-0.083405486343352944

>  <r_i_glide_evdw>  (1) 
-38.339482028812945

>  <r_i_glide_gscore>  (1) 
-6.7130288516284864

>  <r_i_glide_gscore_strain>  (1) 
0

>  <r_i_glide_hbond>  (1) 
-0.16

>  <r_i_glide_ligand_efficiency>  (1) 
-0.18591730223088357

>  <r_i_glide_ligand_efficiency_ln>  (1) 
-1.2998315293574723

>  <r_i_glide_ligand_efficiency_sa>  (1) 
-0.58403701617290094

>  <r_i_glide_lipo>  (1) 
-2.6729400678638697

>  <r_i_glide_metal>  (1) 
-0

>  <r_i_glide_rewards>  (1) 
-1.8242715642743226

>  <r_lp_Energy>  (1) 
38.656515999999996

>  <r_lp_tautomer_probability>  (1) 
0.49995000249987359

>  <s_epik_Chemistry_Notes>  (1) 
This compound has a N-S or N-O group and may undergo hydrolysis at high or low pH.

>  <s_epik_cmdline>  (1) 
J2VwaWtfcHl0aG9uJywgJy1waHQnLCAnMS4wJywgJy1waCcsICc3LjQnLCAnLXRuJywgJzgnLCAnLW1hJywgJzUwMCcsICctaW1hZScsICc8aW5maWxlLm1hZT4nLCAnLW9tYWUnLCAnPG91dGZpbGUubWFlPic=

>  <s_epik_input>  (1) 
TjE9W0NIXU49QyhDKFtDSDJdMikoW0NIM10pW0NIM10pW0NASF0xW0NAQEhdKFtDQEBIXTIzKVNbQ0BASF0oW0NIMl0zKVtDQEhdKFtPSF0pQyg9TylbQ0gyXWM0W2NIXVtjSF1jKFtjSF1bY0hdNClDKD1PKU4oW09IXSlbQ0gyXVtDSDNd

>  <s_glide_docking_method>  (1) 
confgen

>  <s_i_glide_gridfile>  (1) 
gpcr_drd2_6luq_protein_autoprepared_prepared

>  <s_lp_Force_Field>  (1) 
S-OPLS

>  <s_lp_Variant>  (1) 
DiffSBDD_34_num_sample_100-3

>  <s_m_source_file>  (1) 
generated__ligand_DiffSBDD_2026-05-06_prepared.sdf

>  <GenAI_Model>  (1) 
DiffSBDD

>  <Protein>  (1) 
generic_title2

$$$$
DiffSBDD_16_num_sample_100
     RDKit          3D

  0  0  0  0  0  0  0  0  0  0999 V3000
M  V30 BEGIN CTAB
M  V30 COUNTS 54 57 0 0 1
M  V30 BEGIN ATOM
M  V30 1 C 10.457175 6.105721 -7.515665 0
M  V30 2 C 11.082791 7.369301 -10.602719 0
M  V30 3 C 7.070990 0.394782 -14.075634 0
M  V30 4 C 6.735379 1.704490 -13.684977 0
M  V30 5 C 7.378682 6.283912 -12.829693 0
M  V30 6 C 9.947529 8.831345 -6.898352 0 CFG=1
M  V30 7 C 9.888773 6.688947 -9.931534 0 CFG=1
M  V30 8 C 7.706950 0.169302 -15.312036 0
M  V30 9 C 7.672070 2.564353 -15.770155 0
M  V30 10 C 7.034839 2.791326 -14.532517 0
M  V30 11 C 8.193146 8.536201 -12.087769 0
M  V30 12 C 8.007294 1.253018 -16.159952 0
M  V30 13 C 11.208028 8.100586 -6.426435 0 CFG=1
M  V30 14 C 6.662703 4.200951 -14.117895 0
M  V30 15 C 7.726098 4.836624 -13.217304 0
M  V30 16 N 8.634840 1.027377 -17.383560 0
M  V30 17 C 9.383414 5.350650 -10.414930 0
M  V30 18 C 8.509828 7.035664 -12.095952 0 CFG=1
M  V30 19 C 10.912198 9.468811 -5.920662 0
M  V30 20 O 10.110805 8.453081 -8.262132 0
M  V30 21 C 9.693375 7.082867 -8.464314 0 CFG=2
M  V30 22 C 10.746634 6.703825 -6.124404 0
M  V30 23 N 8.634863 6.569301 -10.691667 0 CFG=2 CHG=1
M  V30 24 H 9.914262 5.164821 -7.446072 0
M  V30 25 H 11.422303 5.870462 -7.955377 0
M  V30 26 H 11.972344 7.238224 -9.986419 0
M  V30 27 H 11.305472 6.955727 -11.584921 0
M  V30 28 H 10.916701 8.441496 -10.691667 0
M  V30 29 H 6.838570 -0.438600 -13.428402 0
M  V30 30 H 6.245410 1.875739 -12.737398 0
M  V30 31 H 7.146634 6.823506 -13.749085 0
M  V30 32 H 6.464044 6.305146 -12.234444 0
M  V30 33 H 8.964304 8.569300 -6.505369 0
M  V30 34 H 7.963282 -0.836722 -15.609974 0
M  V30 35 H 7.900624 3.396201 -16.420224 0
M  V30 36 H 8.041616 8.923226 -13.091667 0
M  V30 37 H 7.292114 8.755679 -11.512843 0
M  V30 38 H 9.007452 9.094696 -11.643806 0
M  V30 39 H 12.093211 8.105479 -7.064381 0
M  V30 40 H 6.514237 4.807718 -15.012124 0
M  V30 41 H 5.700982 4.176881 -13.603410 0
M  V30 42 H 7.833172 4.222102 -12.324151 0
M  V30 43 H 8.688088 4.815724 -13.732196 0
M  V30 44 H 8.730373 0.088510 -17.743381 0
M  V30 45 H 8.706596 1.770482 -18.063349 0
M  V30 46 H 8.796059 4.706297 -9.763914 0
M  V30 47 H 9.820009 4.909762 -11.309139 0
M  V30 48 H 9.429660 6.876972 -12.656378 0
M  V30 49 H 11.523653 10.288738 -6.291942 0
M  V30 50 H 10.634839 9.550212 -4.873260 0
M  V30 51 H 8.634839 7.006858 -8.214185 0
M  V30 52 H 11.526647 6.149167 -5.602157 0
M  V30 53 H 9.857548 6.709075 -5.491667 0
M  V30 54 H 7.858814 6.836208 -10.073199 0
M  V30 END ATOM
M  V30 BEGIN BOND
M  V30 1 1 4 3
M  V30 2 1 7 2 CFG=3
M  V30 3 2 8 3
M  V30 4 2 10 4
M  V30 5 1 10 9
M  V30 6 1 12 8
M  V30 7 2 12 9
M  V30 8 1 13 6
M  V30 9 1 14 10
M  V30 10 1 15 5
M  V30 11 1 15 14
M  V30 12 1 16 12
M  V30 13 1 17 7
M  V30 14 1 18 5
M  V30 15 1 18 11
M  V30 16 1 19 6
M  V30 17 1 19 13
M  V30 18 1 20 6
M  V30 19 1 21 1
M  V30 20 1 21 7
M  V30 21 1 21 20
M  V30 22 1 22 1
M  V30 23 1 22 13
M  V30 24 1 23 7
M  V30 25 1 23 17
M  V30 26 1 23 18
M  V30 27 1 24 1
M  V30 28 1 25 1
M  V30 29 1 26 2
M  V30 30 1 27 2
M  V30 31 1 28 2
M  V30 32 1 29 3
M  V30 33 1 30 4
M  V30 34 1 31 5
M  V30 35 1 32 5
M  V30 36 1 6 33 CFG=1
M  V30 37 1 34 8
M  V30 38 1 35 9
M  V30 39 1 36 11
M  V30 40 1 37 11
M  V30 41 1 38 11
M  V30 42 1 13 39 CFG=3
M  V30 43 1 40 14
M  V30 44 1 41 14
M  V30 45 1 42 15
M  V30 46 1 43 15
M  V30 47 1 44 16
M  V30 48 1 45 16
M  V30 49 1 46 17
M  V30 50 1 47 17
M  V30 51 1 18 48 CFG=3
M  V30 52 1 49 19
M  V30 53 1 50 19
M  V30 54 1 21 51 CFG=1
M  V30 55 1 52 22
M  V30 56 1 53 22
M  V30 57 1 23 54 CFG=1
M  V30 END BOND
M  V30 END CTAB
M  END
>  <i_epik_Tot_Q>  (1) 
1

>  <i_epik_Tot_abs_Q>  (1) 
1

>  <i_i_glide_confnum>  (1) 
51

>  <i_i_glide_lignum>  (1) 
27

>  <i_i_glide_posenum>  (1) 
165

>  <i_i_glide_rotatable_bonds>  (1) 
6

>  <i_lp_mmshare_version>  (1) 
72125

>  <i_m_source_file_index>  (1) 
17

>  <i_f3d_flags>  (1) 
0

>  <num_sample>  (1) 
100

>  <b_lp_Chiralities_Consistent>  (1) 
1

>  <r_epik_Charging_Adjusted_Penalty>  (1) 
0.11272327168216571

>  <r_epik_Ionization_Penalty>  (1) 
0.057493963086777844

>  <r_epik_Ionization_Penalty_Charging>  (1) 
0.056361635841082856

>  <r_epik_Ionization_Penalty_Neutral>  (1) 
0.0011323272456949893

>  <r_epik_State_Penalty>  (1) 
0.056361635841082856

>  <r_glide_ring_energy>  (1) 
0

>  <r_i_docking_score>  (1) 
-5.760980895075309

>  <r_i_glide_ecoul>  (1) 
-7.7382339290513595

>  <r_i_glide_eff_state_penalty>  (1) 
0.056361635841082856

>  <r_i_glide_einternal>  (1) 
2.0118111719054781

>  <r_i_glide_emodel>  (1) 
-52.151582468762058

>  <r_i_glide_emodel_strain>  (1) 
0.0078889090345199975

>  <r_i_glide_energy>  (1) 
-36.549504099950241

>  <r_i_glide_erotb>  (1) 
1.1214719841998091

>  <r_i_glide_esite>  (1) 
-0.083005399887726039

>  <r_i_glide_evdw>  (1) 
-28.811270170898883

>  <r_i_glide_gscore>  (1) 
-5.8173425309163918

>  <r_i_glide_gscore_strain>  (1) 
0

>  <r_i_glide_hbond>  (1) 
-0.19679792285445147

>  <r_i_glide_ligand_efficiency>  (1) 
-0.2504774302206656

>  <r_i_glide_ligand_efficiency_ln>  (1) 
-1.3930574181158539

>  <r_i_glide_ligand_efficiency_sa>  (1) 
-0.71232449300262557

>  <r_i_glide_lipo>  (1) 
-1.9671677165044781

>  <r_i_glide_metal>  (1) 
-0

>  <r_i_glide_rewards>  (1) 
-2.0905448779668974

>  <r_lp_Energy>  (1) 
55.325258999999996

>  <s_epik_cmdline>  (1) 
J2VwaWtfcHl0aG9uJywgJy1waHQnLCAnMS4wJywgJy1waCcsICc3LjQnLCAnLXRuJywgJzgnLCAnLW1hJywgJzUwMCcsICctaW1hZScsICc8aW5maWxlLm1hZT4nLCAnLW9tYWUnLCAnPG91dGZpbGUubWFlPic=

>  <s_epik_input>  (1) 
W0NIXTEyW0NIXShbQ0gyXTEpW0NIMl1bQ0gyXVtDQEBIXShPMilbQ0BAXTMoW0NIM10pW0NIMl1OM1tDQEhdKFtDSDNdKVtDSDJdW0NIMl1bQ0gyXWM0W2NIXVtjSF1bY0hdYyhbY0hdNClbTkgyXQ==

>  <s_glide_docking_method>  (1) 
confgen

>  <s_i_glide_gridfile>  (1) 
gpcr_drd2_6luq_protein_autoprepared_prepared

>  <s_lp_Force_Field>  (1) 
S-OPLS

>  <s_lp_Variant>  (1) 
DiffSBDD_16_num_sample_100-2

>  <s_m_source_file>  (1) 
generated__ligand_DiffSBDD_2026-05-06_prepared.sdf

>  <GenAI_Model>  (1) 
DiffSBDD

>  <Protein>  (1) 
generic_title2

$$$$
DiffSBDD_90_num_sample_100
     RDKit          3D

  0  0  0  0  0  0  0  0  0  0999 V3000
M  V30 BEGIN CTAB
M  V30 COUNTS 61 65 0 0 1
M  V30 BEGIN ATOM
M  V30 1 C 8.356490 5.886262 -20.397491 0
M  V30 2 C 7.256721 5.737335 -17.350238 0
M  V30 3 C 9.754713 6.992861 -6.845476 0
M  V30 4 S 9.579111 5.843396 -21.637936 0
M  V30 5 C 8.232016 5.392106 -15.110387 0
M  V30 6 C 9.639399 5.356955 -17.092793 0
M  V30 7 C 9.522241 5.247246 -15.698022 0
M  V30 8 C 9.666241 6.197940 -8.163864 0
M  V30 9 C 11.655582 8.632434 -7.395977 0
M  V30 10 C 11.269616 7.861339 -5.014027 0
M  V30 11 N 9.434988 7.009812 -9.393467 0 CFG=1 CHG=1
M  V30 12 C 10.071537 8.349828 -9.410022 0
M  V30 13 C 7.373151 5.091249 -10.623740 0
M  V30 14 C 5.668786 5.670806 -13.977288 0
M  V30 15 C 8.541865 5.593873 -17.874694 0
M  V30 16 C 9.589697 6.270453 -10.686108 0
M  V30 17 C 10.827471 5.536544 -20.442421 0
M  V30 18 C 11.002044 5.237617 -17.895621 0
M  V30 19 C 8.070239 5.299732 -13.709227 0
M  V30 20 C 11.532340 8.384090 -8.913788 0
M  V30 21 N 10.267424 5.485069 -19.219928 0 CHG=1
M  V30 22 C 12.287590 5.353401 -20.686501 0
M  V30 23 C 11.180087 7.473410 -6.503920 0 CFG=1
M  V30 24 C 5.832408 5.779787 -15.368894 0
M  V30 25 C 7.097122 5.636225 -15.943671 0
M  V30 26 C 6.496055 5.316351 -11.641943 0
M  V30 27 C 8.869182 4.900540 -10.729960 0
M  V30 28 C 6.771523 5.427946 -13.126733 0
M  V30 29 C 8.924380 5.673100 -19.174670 0
M  V30 30 H 7.320586 6.064321 -20.647096 0
M  V30 31 H 6.410409 5.925991 -17.994187 0
M  V30 32 H 9.449246 6.308152 -6.053948 0
M  V30 33 H 9.024126 7.803024 -6.811666 0
M  V30 34 H 10.392878 5.063980 -15.085358 0
M  V30 35 H 8.818496 5.520981 -8.058634 0
M  V30 36 H 10.548262 5.568218 -8.285478 0
M  V30 37 H 12.700182 8.847408 -7.165496 0
M  V30 38 H 11.108860 9.531836 -7.116407 0
M  V30 39 H 10.634261 8.711904 -4.782209 0
M  V30 40 H 10.970072 7.028300 -4.377115 0
M  V30 41 H 12.265220 8.157187 -4.697180 0
M  V30 42 H 10.016148 8.738410 -10.424360 0
M  V30 43 H 9.452559 9.022198 -8.818431 0
M  V30 44 H 6.979137 5.046627 -9.619555 0
M  V30 45 H 4.682646 5.773353 -13.552761 0
M  V30 46 H 10.634903 6.169302 -10.944173 0
M  V30 47 H 9.174891 6.892194 -11.478741 0
M  V30 48 H 11.711094 6.039476 -17.685365 0
M  V30 49 H 11.444600 4.241232 -17.877431 0
M  V30 50 H 8.928657 5.134512 -13.111885 0
M  V30 51 H 12.077691 7.490648 -9.219967 0
M  V30 52 H 12.034041 9.212320 -9.418229 0
M  V30 53 H 12.572605 4.350933 -20.366505 0
M  V30 54 H 12.481283 5.478376 -21.752891 0
M  V30 55 H 11.853165 6.629955 -6.657696 0
M  V30 56 H 4.974146 5.967217 -15.996584 0
M  V30 57 H 5.457121 5.433677 -11.367734 0
M  V30 58 H 9.163767 4.314094 -9.862554 0
M  V30 59 H 9.182717 4.195827 -11.491535 0
M  V30 60 H 12.838236 6.102926 -20.117162 0
M  V30 61 H 8.436741 7.249830 -9.371708 0
M  V30 END ATOM
M  V30 BEGIN BOND
M  V30 1 1 4 1
M  V30 2 2 7 5
M  V30 3 1 7 6
M  V30 4 1 8 3
M  V30 5 1 11 8
M  V30 6 1 12 11
M  V30 7 1 15 2
M  V30 8 2 15 6
M  V30 9 1 16 11
M  V30 10 1 17 4
M  V30 11 1 18 6
M  V30 12 1 19 5
M  V30 13 1 20 9
M  V30 14 1 20 12
M  V30 15 2 21 17
M  V30 16 1 21 18
M  V30 17 1 22 17
M  V30 18 1 23 3
M  V30 19 1 23 9
M  V30 20 1 23 10
M  V30 21 2 24 14
M  V30 22 2 25 2
M  V30 23 1 25 5
M  V30 24 1 25 24
M  V30 25 2 26 13
M  V30 26 1 27 13
M  V30 27 1 27 16
M  V30 28 1 28 14
M  V30 29 2 28 19
M  V30 30 1 28 26
M  V30 31 2 29 1
M  V30 32 1 29 15
M  V30 33 1 29 21
M  V30 34 1 30 1
M  V30 35 1 31 2
M  V30 36 1 32 3
M  V30 37 1 33 3
M  V30 38 1 34 7
M  V30 39 1 35 8
M  V30 40 1 36 8
M  V30 41 1 37 9
M  V30 42 1 38 9
M  V30 43 1 39 10
M  V30 44 1 40 10
M  V30 45 1 41 10
M  V30 46 1 42 12
M  V30 47 1 43 12
M  V30 48 1 44 13
M  V30 49 1 45 14
M  V30 50 1 46 16
M  V30 51 1 47 16
M  V30 52 1 48 18
M  V30 53 1 49 18
M  V30 54 1 50 19
M  V30 55 1 51 20
M  V30 56 1 52 20
M  V30 57 1 53 22
M  V30 58 1 54 22
M  V30 59 1 23 55 CFG=1
M  V30 60 1 56 24
M  V30 61 1 57 26
M  V30 62 1 58 27
M  V30 63 1 59 27
M  V30 64 1 60 22
M  V30 65 1 11 61 CFG=1
M  V30 END BOND
M  V30 END CTAB
M  END
>  <i_epik_Tot_Q>  (1) 
2

>  <i_epik_Tot_abs_Q>  (1) 
2

>  <i_i_glide_confnum>  (1) 
263

>  <i_i_glide_lignum>  (1) 
184

>  <i_i_glide_posenum>  (1) 
228

>  <i_i_glide_rotatable_bonds>  (1) 
4

>  <i_lp_mmshare_version>  (1) 
72125

>  <i_m_source_file_index>  (1) 
91

>  <i_f3d_flags>  (1) 
0

>  <num_sample>  (1) 
100

>  <b_lp_Chiralities_Consistent>  (1) 
1

>  <r_epik_Charging_Adjusted_Penalty>  (1) 
0.0021252633397680827

>  <r_epik_Ionization_Penalty>  (1) 
0.002125263340211697

>  <r_epik_Ionization_Penalty_Charging>  (1) 
0.0021252633397680827

>  <r_epik_Ionization_Penalty_Neutral>  (1) 
4.4361447992621368e-13

>  <r_epik_State_Penalty>  (1) 
-0

>  <r_glide_ring_energy>  (1) 
1.4535170685106169

>  <r_i_docking_score>  (1) 
-5.7605945966222505

>  <r_i_glide_ecoul>  (1) 
-6.3777332245157723

>  <r_i_glide_eff_state_penalty>  (1) 
-0

>  <r_i_glide_einternal>  (1) 
8.8478181357217363

>  <r_i_glide_emodel>  (1) 
-45.968146796630982

>  <r_i_glide_emodel_strain>  (1) 
0.15184450850460962

>  <r_i_glide_energy>  (1) 
-33.208798125605071

>  <r_i_glide_erotb>  (1) 
0.47996519481946287

>  <r_i_glide_esite>  (1) 
-0.10000000000000001

>  <r_i_glide_evdw>  (1) 
-26.831064901089302

>  <r_i_glide_gscore>  (1) 
-5.7605945966222505

>  <r_i_glide_gscore_strain>  (1) 
0

>  <r_i_glide_hbond>  (1) 
-0.20000000000000001

>  <r_i_glide_ligand_efficiency>  (1) 
-0.19864119298697416

>  <r_i_glide_ligand_efficiency_ln>  (1) 
-1.3190300865513136

>  <r_i_glide_ligand_efficiency_sa>  (1) 
-0.61028867948819032

>  <r_i_glide_lipo>  (1) 
-2.1446154709625023

>  <r_i_glide_metal>  (1) 
-0

>  <r_i_glide_rewards>  (1) 
-1.4977310917473794

>  <r_lp_Energy>  (1) 
49.647815999999999

>  <r_lp_tautomer_probability>  (1) 
1

>  <s_epik_cmdline>  (1) 
J2VwaWtfcHl0aG9uJywgJy1waHQnLCAnMS4wJywgJy1waCcsICc3LjQnLCAnLXRuJywgJzgnLCAnLW1hJywgJzUwMCcsICctaW1hZScsICc8aW5maWxlLm1hZT4nLCAnLW9tYWUnLCAnPG91dGZpbGUubWFlPic=

>  <s_epik_input>  (1) 
W0NIMl09QzFTW0NIXT1DMk4xW0NIMl1jKFtjSF0zKWMyW2NIXWMoYzM0KVtjSF1bY0hdYyhbY0hdNCkvW0NIXT1bQ0hdXFtDSDJdW0NIMl1ONVtDSDJdW0NIMl1bQ0BIXShbQ0gzXSlbQ0gyXVtDSDJdW0NIMl01

>  <s_glide_docking_method>  (1) 
confgen

>  <s_i_glide_gridfile>  (1) 
gpcr_drd2_6luq_protein_autoprepared_prepared

>  <s_lp_Force_Field>  (1) 
S-OPLS

>  <s_lp_Variant>  (1) 
DiffSBDD_90_num_sample_100-4

>  <s_m_source_file>  (1) 
generated__ligand_DiffSBDD_2026-05-06_prepared.sdf

>  <GenAI_Model>  (1) 
DiffSBDD

>  <Protein>  (1) 
generic_title2

$$$$
DiffSBDD_75_num_sample_100
     RDKit          3D

  0  0  0  0  0  0  0  0  0  0999 V3000
M  V30 BEGIN CTAB
M  V30 COUNTS 76 81 0 0 1
M  V30 BEGIN ATOM
M  V30 1 C 7.015631 1.796222 -13.414112 0
M  V30 2 C 6.924810 3.230993 -12.918568 0
M  V30 3 C 9.578977 6.096935 -11.350094 0
M  V30 4 C 12.033406 8.103798 -7.475451 0 CFG=2
M  V30 5 F 6.634834 7.874816 -15.747061 0
M  V30 6 C 8.120157 1.485365 -14.415955 0
M  V30 7 C 8.033939 3.906844 -15.250928 0 CFG=1
M  V30 8 N 6.889453 5.630506 -13.806237 0
M  V30 9 O 8.726172 6.115103 -6.691673 0 CHG=-1
M  V30 10 C 8.049379 2.389980 -15.691195 0 CFG=2
M  V30 11 C 6.381577 0.004968 -19.178763 0 CFG=1
M  V30 12 N 8.556964 5.540272 -7.764061 0 CHG=1
M  V30 13 C 12.157283 8.334033 -9.979655 0
M  V30 14 O 7.834849 4.569269 -7.923878 0
M  V30 15 C 8.019564 5.026338 -16.348683 0
M  V30 16 C 9.270515 6.046265 -8.952123 0
M  V30 17 C 6.130394 1.445928 -18.794952 0 CFG=1
M  V30 18 C 12.326152 9.009084 -8.646019 0
M  V30 19 C 5.737324 0.334716 -17.854484 0 CFG=2
M  V30 20 C 7.854376 6.361603 -13.160116 0
M  V30 21 N 10.746501 7.449299 -7.572614 0
M  V30 22 C 6.663768 5.710164 -16.745440 0
M  V30 23 N 6.928739 1.997550 -16.607163 0 CFG=1 CHG=1
M  V30 24 C 7.112588 2.322663 -18.046523 0
M  V30 25 C 5.632809 -0.688752 -20.293181 0
M  V30 26 O 6.236361 0.931025 -13.026436 0
M  V30 27 C 5.696415 6.286973 -14.332527 0
M  V30 28 O 7.735192 -0.387983 -19.086957 0
M  V30 29 C 5.965131 6.730019 -15.785438 0 CFG=1
M  V30 30 O 7.716297 7.562529 -12.926019 0
M  V30 31 O 11.036999 9.774189 -6.025218 0
M  V30 32 C 6.490056 0.573610 -16.568890 0
M  V30 33 C 10.977539 7.395540 -10.032064 0
M  V30 34 C 8.903126 5.596146 -10.230923 0
M  V30 35 N 10.608331 6.978038 -11.272147 0
M  V30 36 C 9.169198 5.654769 -12.743813 0
M  V30 37 C 12.098619 8.859035 -6.126894 0
M  V30 38 C 10.335414 6.975367 -8.840094 0
M  V30 39 C 7.005696 4.193587 -14.127214 0 CFG=2
M  V30 40 H 7.699446 3.377522 -12.172508 0
M  V30 41 H 5.975727 3.366490 -12.398781 0
M  V30 42 H 12.786819 7.319180 -7.491701 0
M  V30 43 H 9.034829 1.666749 -13.863689 0
M  V30 44 H 8.134918 0.420101 -14.641745 0
M  V30 45 H 9.022149 4.025656 -14.813779 0
M  V30 46 H 8.971389 2.208737 -16.247359 0
M  V30 47 H 13.050551 7.769290 -10.230247 0
M  V30 48 H 12.055111 9.133607 -10.691667 0
M  V30 49 H 8.505397 4.641554 -17.244823 0
M  V30 50 H 8.690382 5.819109 -16.018371 0
M  V30 51 H 5.313222 1.968495 -19.290004 0
M  V30 52 H 11.657366 9.863926 -8.620229 0
M  V30 53 H 13.347888 9.369297 -8.575487 0
M  V30 54 H 4.673520 0.128542 -17.750150 0
M  V30 55 H 10.344839 7.033584 -6.737393 0
M  V30 56 H 5.934216 4.969299 -17.032346 0
M  V30 57 H 6.851528 6.251722 -17.673459 0
M  V30 58 H 6.905230 3.366093 -18.268930 0
M  V30 59 H 8.126877 2.102080 -18.381838 0
M  V30 60 H 4.588845 -0.378324 -20.291701 0
M  V30 61 H 6.066569 -0.435210 -21.260887 0
M  V30 62 H 5.667521 -1.770789 -20.164381 0
M  V30 63 H 4.840072 5.614568 -14.292046 0
M  V30 64 H 5.400239 7.143387 -13.723790 0
M  V30 65 H 7.768805 -1.330135 -19.003677 0
M  V30 66 H 5.011194 7.014994 -16.231123 0
M  V30 67 H 10.291650 9.366679 -6.446776 0
M  V30 68 H 7.337089 -0.112653 -16.531244 0
M  V30 69 H 5.842031 0.372903 -15.715138 0
M  V30 70 H 8.093731 4.891971 -10.351784 0
M  V30 71 H 9.946845 5.933818 -13.454628 0
M  V30 72 H 9.162856 4.574643 -12.740626 0
M  V30 73 H 13.049520 9.379170 -6.005269 0
M  V30 74 H 11.988979 8.169299 -5.288931 0
M  V30 75 H 6.075614 3.947411 -14.637222 0
M  V30 76 H 6.115706 2.516265 -16.308052 0
M  V30 END ATOM
M  V30 BEGIN BOND
M  V30 1 1 2 1
M  V30 2 1 6 1
M  V30 3 1 10 6
M  V30 4 1 10 7
M  V30 5 1 12 9
M  V30 6 2 14 12
M  V30 7 1 15 7
M  V30 8 1 16 12
M  V30 9 1 17 11
M  V30 10 1 18 4
M  V30 11 1 18 13
M  V30 12 1 19 11
M  V30 13 1 19 17
M  V30 14 1 20 8
M  V30 15 1 21 4
M  V30 16 1 22 15
M  V30 17 1 23 10
M  V30 18 1 24 17
M  V30 19 1 24 23
M  V30 20 1 25 11
M  V30 21 2 26 1
M  V30 22 1 27 8
M  V30 23 1 11 28 CFG=1
M  V30 24 1 29 5
M  V30 25 1 29 22
M  V30 26 1 29 27
M  V30 27 2 30 20
M  V30 28 1 32 19
M  V30 29 1 32 23
M  V30 30 1 33 13
M  V30 31 2 34 3
M  V30 32 1 34 16
M  V30 33 1 35 3
M  V30 34 2 35 33
M  V30 35 1 36 3
M  V30 36 1 36 20
M  V30 37 1 37 4
M  V30 38 1 37 31
M  V30 39 2 38 16
M  V30 40 1 38 21
M  V30 41 1 38 33
M  V30 42 1 39 2
M  V30 43 1 39 7
M  V30 44 1 39 8
M  V30 45 1 40 2
M  V30 46 1 41 2
M  V30 47 1 4 42 CFG=1
M  V30 48 1 43 6
M  V30 49 1 44 6
M  V30 50 1 7 45 CFG=1
M  V30 51 1 10 46 CFG=3
M  V30 52 1 47 13
M  V30 53 1 48 13
M  V30 54 1 49 15
M  V30 55 1 50 15
M  V30 56 1 17 51 CFG=3
M  V30 57 1 52 18
M  V30 58 1 53 18
M  V30 59 1 19 54 CFG=1
M  V30 60 1 55 21
M  V30 61 1 56 22
M  V30 62 1 57 22
M  V30 63 1 58 24
M  V30 64 1 59 24
M  V30 65 1 60 25
M  V30 66 1 61 25
M  V30 67 1 62 25
M  V30 68 1 63 27
M  V30 69 1 64 27
M  V30 70 1 65 28
M  V30 71 1 29 66 CFG=3
M  V30 72 1 67 31
M  V30 73 1 68 32
M  V30 74 1 69 32
M  V30 75 1 70 34
M  V30 76 1 71 36
M  V30 77 1 72 36
M  V30 78 1 73 37
M  V30 79 1 74 37
M  V30 80 1 39 75 CFG=3
M  V30 81 1 23 76 CFG=1
M  V30 END BOND
M  V30 END CTAB
M  END
>  <i_epik_Tot_Q>  (1) 
1

>  <i_epik_Tot_abs_Q>  (1) 
3

>  <i_i_glide_confnum>  (1) 
264

>  <i_i_glide_lignum>  (1) 
151

>  <i_i_glide_posenum>  (1) 
273

>  <i_i_glide_rotatable_bonds>  (1) 
8

>  <i_lp_mmshare_version>  (1) 
72125

>  <i_m_source_file_index>  (1) 
76

>  <i_f3d_flags>  (1) 
0

>  <num_sample>  (1) 
100

>  <b_lp_Chiralities_Consistent>  (1) 
1

>  <r_epik_Charging_Adjusted_Penalty>  (1) 
0.015891369841317948

>  <r_epik_Ionization_Penalty>  (1) 
0.0079711574059170582

>  <r_epik_Ionization_Penalty_Charging>  (1) 
0.0079456849206589655

>  <r_epik_Ionization_Penalty_Neutral>  (1) 
2.5472485258093083e-05

>  <r_epik_State_Penalty>  (1) 
0.0079456849206589828

>  <r_glide_ring_energy>  (1) 
0

>  <r_i_docking_score>  (1) 
-5.7584005958656084

>  <r_i_glide_ecoul>  (1) 
-2.6063906768836884

>  <r_i_glide_eff_state_penalty>  (1) 
0.0079456849206589828

>  <r_i_glide_einternal>  (1) 
12.931080998397103

>  <r_i_glide_emodel>  (1) 
-32.530539548484832

>  <r_i_glide_emodel_strain>  (1) 
0.36623611994191663

>  <r_i_glide_energy>  (1) 
-36.912508312727965

>  <r_i_glide_erotb>  (1) 
0.34657339541443727

>  <r_i_glide_esite>  (1) 
-0.14226092913143293

>  <r_i_glide_evdw>  (1) 
-34.306117635844274

>  <r_i_glide_gscore>  (1) 
-5.7663462807862675

>  <r_i_glide_gscore_strain>  (1) 
0

>  <r_i_glide_hbond>  (1) 
0

>  <r_i_glide_ligand_efficiency>  (1) 
-0.14765129732988738

>  <r_i_glide_ligand_efficiency_ln>  (1) 
-1.2347645496751574

>  <r_i_glide_ligand_efficiency_sa>  (1) 
-0.50071676908100127

>  <r_i_glide_lipo>  (1) 
-2.4606901733579698

>  <r_i_glide_metal>  (1) 
-0

>  <r_i_glide_rewards>  (1) 
-1.4037040903865361

>  <r_lp_Energy>  (1) 
44.445350999999995

>  <r_lp_tautomer_probability>  (1) 
0.99999997999999912

>  <s_epik_cmdline>  (1) 
J2VwaWtfcHl0aG9uJywgJy1waHQnLCAnMS4wJywgJy1waCcsICc3LjQnLCAnLXRuJywgJzgnLCAnLW1hJywgJzUwMCcsICctaW1hZScsICc8aW5maWxlLm1hZT4nLCAnLW9tYWUnLCAnPG91dGZpbGUubWFlPic=

>  <s_epik_input>  (1) 
W0NIM11bQ0BdMShbT0hdKVtDQEhdKFtDQEhdMTIpW0NIMl1OKFtDSDJdMilbQ0BASF0zW0NIMl1DKD1PKVtDSDJdW0NASF0oW0NAQEhdMzQpTihbQ0gyXVtDQEBIXShGKVtDSDJdW0NIMl00KUMoPU8pW0NIMl1jKG41KVtjSF1jKFtOK10oW08tXSk9TyljKGM1NilbTkhdW0NAQEhdKFtDSDJdW0NIMl02KVtDSDJdW09IXQ==

>  <s_glide_docking_method>  (1) 
confgen

>  <s_i_glide_gridfile>  (1) 
gpcr_drd2_6luq_protein_autoprepared_prepared

>  <s_lp_Force_Field>  (1) 
S-OPLS

>  <s_lp_Variant>  (1) 
DiffSBDD_75_num_sample_100-2

>  <s_m_source_file>  (1) 
generated__ligand_DiffSBDD_2026-05-06_prepared.sdf

>  <GenAI_Model>  (1) 
DiffSBDD

>  <Protein>  (1) 
generic_title2

$$$$
DiffSBDD_93_num_sample_100
     RDKit          3D

  0  0  0  0  0  0  0  0  0  0999 V3000
M  V30 BEGIN CTAB
M  V30 COUNTS 36 36 0 0 1
M  V30 BEGIN ATOM
M  V30 1 C 11.879495 8.394027 -7.869526 0
M  V30 2 C 11.018168 10.503237 -5.275930 0
M  V30 3 C 11.804726 8.044413 -9.361786 0
M  V30 4 C 13.036110 8.166039 -3.017617 0
M  V30 5 C 12.293608 7.013571 -2.403780 0
M  V30 6 C 10.740639 7.794631 -7.008060 0 CFG=2
M  V30 7 C 11.745131 9.191804 -4.986628 0 CFG=2
M  V30 8 C 9.346804 8.244309 -7.483145 0
M  V30 9 C 11.295390 6.583788 -4.840491 0
M  V30 10 C 10.899373 7.953714 -5.451155 0 CFG=2
M  V30 11 C 12.115890 9.266728 -3.495102 0
M  V30 12 C 11.235459 6.403942 -3.309337 0
M  V30 13 H 12.839044 8.042008 -7.492006 0
M  V30 14 H 11.885965 9.477586 -7.782984 0
M  V30 15 H 10.164371 10.600879 -4.615827 0
M  V30 16 H 11.642864 11.368574 -5.097660 0
M  V30 17 H 10.660781 10.570403 -6.291686 0
M  V30 18 H 12.692898 8.395546 -9.887240 0
M  V30 19 H 10.944237 8.512462 -9.839248 0
M  V30 20 H 11.729253 6.969265 -9.510568 0
M  V30 21 H 13.709549 8.571308 -2.259795 0
M  V30 22 H 13.648830 7.797973 -3.837038 0
M  V30 23 H 11.805471 7.344656 -1.491655 0
M  V30 24 H 13.017389 6.252617 -2.105284 0
M  V30 25 H 10.758994 6.726212 -7.229316 0
M  V30 26 H 12.684962 9.211331 -5.533149 0
M  V30 27 H 9.200044 9.319546 -7.427484 0
M  V30 28 H 9.155848 7.940990 -8.512378 0
M  V30 29 H 8.568810 7.778127 -6.879168 0
M  V30 30 H 10.579579 5.855502 -5.221904 0
M  V30 31 H 12.234857 6.232957 -5.238613 0
M  V30 32 H 9.891414 8.118206 -5.091763 0
M  V30 33 H 11.241456 9.369428 -2.851526 0
M  V30 34 H 12.692470 10.169226 -3.340278 0
M  V30 35 H 10.245870 6.569215 -2.904154 0
M  V30 36 H 11.395853 5.369318 -3.138366 0
M  V30 END ATOM
M  V30 BEGIN BOND
M  V30 1 1 3 1
M  V30 2 1 5 4
M  V30 3 1 6 1
M  V30 4 1 7 2
M  V30 5 1 8 6
M  V30 6 1 10 6
M  V30 7 1 10 7
M  V30 8 1 10 9
M  V30 9 1 11 4
M  V30 10 1 11 7
M  V30 11 1 12 5
M  V30 12 1 12 9
M  V30 13 1 13 1
M  V30 14 1 14 1
M  V30 15 1 15 2
M  V30 16 1 16 2
M  V30 17 1 17 2
M  V30 18 1 18 3
M  V30 19 1 19 3
M  V30 20 1 20 3
M  V30 21 1 21 4
M  V30 22 1 22 4
M  V30 23 1 23 5
M  V30 24 1 24 5
M  V30 25 1 6 25 CFG=1
M  V30 26 1 7 26 CFG=3
M  V30 27 1 27 8
M  V30 28 1 28 8
M  V30 29 1 29 8
M  V30 30 1 30 9
M  V30 31 1 31 9
M  V30 32 1 10 32 CFG=1
M  V30 33 1 33 11
M  V30 34 1 34 11
M  V30 35 1 35 12
M  V30 36 1 36 12
M  V30 END BOND
M  V30 END CTAB
M  END
>  <i_epik_Tot_Q>  (1) 
0

>  <i_epik_Tot_abs_Q>  (1) 
0

>  <i_i_glide_confnum>  (1) 
1

>  <i_i_glide_lignum>  (1) 
188

>  <i_i_glide_posenum>  (1) 
265

>  <i_i_glide_rotatable_bonds>  (1) 
2

>  <i_lp_mmshare_version>  (1) 
72125

>  <i_m_source_file_index>  (1) 
94

>  <i_f3d_flags>  (1) 
0

>  <num_sample>  (1) 
100

>  <b_lp_Chiralities_Consistent>  (1) 
1

>  <r_epik_Charging_Adjusted_Penalty>  (1) 
0

>  <r_epik_Ionization_Penalty>  (1) 
0

>  <r_epik_Ionization_Penalty_Charging>  (1) 
0

>  <r_epik_Ionization_Penalty_Neutral>  (1) 
0

>  <r_epik_State_Penalty>  (1) 
-0

>  <r_glide_ring_energy>  (1) 
0

>  <r_i_docking_score>  (1) 
-5.7534956919236464

>  <r_i_glide_ecoul>  (1) 
-0.10274339125696291

>  <r_i_glide_eff_state_penalty>  (1) 
-0

>  <r_i_glide_einternal>  (1) 
0.076564971412913962

>  <r_i_glide_emodel>  (1) 
-16.053861170197219

>  <r_i_glide_emodel_strain>  (1) 
1.5991393413642676

>  <r_i_glide_energy>  (1) 
-13.387045381647992

>  <r_i_glide_erotb>  (1) 
0.54244534581565329

>  <r_i_glide_esite>  (1) 
0

>  <r_i_glide_evdw>  (1) 
-13.284301990391029

>  <r_i_glide_gscore>  (1) 
-5.7534956919236464

>  <r_i_glide_gscore_strain>  (1) 
0

>  <r_i_glide_hbond>  (1) 
0

>  <r_i_glide_ligand_efficiency>  (1) 
-0.47945797432697052

>  <r_i_glide_ligand_efficiency_ln>  (1) 
-1.6509755554782659

>  <r_i_glide_ligand_efficiency_sa>  (1) 
-1.0976847438357058

>  <r_i_glide_lipo>  (1) 
-2.6961773396922295

>  <r_i_glide_metal>  (1) 
-0

>  <r_i_glide_rewards>  (1) 
-2.920137089838974

>  <r_lp_Energy>  (1) 
24.382804

>  <r_lp_tautomer_probability>  (1) 
1

>  <s_epik_cmdline>  (1) 
J2VwaWtfcHl0aG9uJywgJy1waHQnLCAnMS4wJywgJy1waCcsICc3LjQnLCAnLXRuJywgJzgnLCAnLW1hJywgJzUwMCcsICctaW1hZScsICc8aW5maWxlLm1hZT4nLCAnLW9tYWUnLCAnPG91dGZpbGUubWFlPic=

>  <s_epik_input>  (1) 
W0NIM11bQ0gyXVtDQEhdKFtDSDNdKVtDQEhdKFtDQEhdMVtDSDNdKVtDSDJdW0NIMl1bQ0gyXVtDSDJdW0NIMl0x

>  <s_glide_docking_method>  (1) 
confgen

>  <s_i_glide_gridfile>  (1) 
gpcr_drd2_6luq_protein_autoprepared_prepared

>  <s_lp_Force_Field>  (1) 
S-OPLS

>  <s_lp_Variant>  (1) 
DiffSBDD_93_num_sample_100-1

>  <s_m_source_file>  (1) 
generated__ligand_DiffSBDD_2026-05-06_prepared.sdf

>  <GenAI_Model>  (1) 
DiffSBDD

>  <Protein>  (1) 
generic_title2

$$$$
DiffSBDD_38_num_sample_100
     RDKit          3D

  0  0  0  0  0  0  0  0  0  0999 V3000
M  V30 BEGIN CTAB
M  V30 COUNTS 50 52 0 0 1
M  V30 BEGIN ATOM
M  V30 1 C 8.240484 4.122158 -11.450209 0
M  V30 2 S 9.396481 7.871982 -11.491646 0
M  V30 3 C 10.598341 8.041878 -6.880840 0
M  V30 4 C 11.499075 7.268119 -7.867721 0
M  V30 5 N 7.274634 1.457155 -14.185377 0 CHG=1
M  V30 6 C 12.181502 7.829798 -3.448352 0
M  V30 7 C 6.692431 3.798492 -13.499173 0
M  V30 8 O 11.054228 6.169380 -4.803744 0
M  V30 9 C 12.388382 9.368802 -3.819370 0
M  V30 10 C 6.436500 2.294305 -13.305026 0
M  V30 11 C 8.635404 5.498858 -11.050034 0
M  V30 12 C 9.743915 7.243320 -9.779309 0 CFG=1
M  V30 13 N 11.265461 8.266224 -5.587234 0
M  V30 14 C 9.377760 5.811061 -10.003609 0
M  V30 15 C 8.195872 6.555223 -11.956045 0 CFG=2
M  V30 16 C 11.760680 9.421960 -5.217658 0
M  V30 17 C 8.356007 5.815080 -13.287912 0 CFG=2
M  V30 18 O 11.741378 10.450972 -5.891579 0
M  V30 19 O 7.535555 6.382838 -14.292142 0
M  V30 20 C 8.067104 4.298399 -12.987258 0 CFG=1
M  V30 21 C 11.434834 7.327527 -4.691623 0
M  V30 22 C 7.006120 0.012933 -14.047167 0
M  V30 23 C 11.191662 7.529164 -9.353944 0
M  V30 24 H 7.295819 3.885006 -10.960050 0
M  V30 25 H 9.003701 3.387706 -11.183189 0
M  V30 26 H 10.297279 8.989407 -7.324641 0
M  V30 27 H 9.663493 7.499055 -6.725211 0
M  V30 28 H 11.435154 6.201031 -7.651322 0
M  V30 29 H 12.539008 7.550628 -7.700118 0
M  V30 30 H 7.123246 1.725872 -15.147286 0
M  V30 31 H 11.589214 7.694901 -2.543039 0
M  V30 32 H 13.132522 7.310324 -3.332704 0
M  V30 33 H 5.908064 4.357740 -12.986527 0
M  V30 34 H 6.581445 4.026937 -14.559973 0
M  V30 35 H 11.851824 10.023039 -3.131069 0
M  V30 36 H 13.437325 9.656400 -3.854816 0
M  V30 37 H 6.624551 2.002291 -12.279371 0
M  V30 38 H 5.385412 2.078382 -13.491620 0
M  V30 39 H 9.034889 7.682288 -9.079706 0
M  V30 40 H 9.743794 5.062373 -9.315882 0
M  V30 41 H 7.163791 6.822345 -11.721376 0
M  V30 42 H 9.396190 5.893752 -13.609663 0
M  V30 43 H 6.663872 6.491210 -13.944271 0
M  V30 44 H 8.844257 3.725040 -13.492014 0
M  V30 45 H 7.719777 -0.565464 -14.636016 0
M  V30 46 H 7.092714 -0.287819 -13.003282 0
M  V30 47 H 6.000779 -0.235340 -14.389235 0
M  V30 48 H 11.885595 6.969303 -9.980318 0
M  V30 49 H 11.399225 8.580507 -9.556415 0
M  V30 50 H 8.242590 1.624498 -13.950083 0
M  V30 END ATOM
M  V30 BEGIN BOND
M  V30 1 1 4 3
M  V30 2 1 9 6
M  V30 3 1 10 5
M  V30 4 1 10 7
M  V30 5 1 11 1
M  V30 6 1 12 2
M  V30 7 1 13 3
M  V30 8 2 14 11
M  V30 9 1 14 12
M  V30 10 1 15 2
M  V30 11 1 15 11
M  V30 12 1 16 9
M  V30 13 1 16 13
M  V30 14 1 17 15
M  V30 15 2 18 16
M  V30 16 1 19 17
M  V30 17 1 20 1
M  V30 18 1 20 7
M  V30 19 1 20 17
M  V30 20 1 21 6
M  V30 21 2 21 8
M  V30 22 1 21 13
M  V30 23 1 22 5
M  V30 24 1 23 4
M  V30 25 1 23 12
M  V30 26 1 24 1
M  V30 27 1 25 1
M  V30 28 1 26 3
M  V30 29 1 27 3
M  V30 30 1 28 4
M  V30 31 1 29 4
M  V30 32 1 30 5
M  V30 33 1 31 6
M  V30 34 1 32 6
M  V30 35 1 33 7
M  V30 36 1 34 7
M  V30 37 1 35 9
M  V30 38 1 36 9
M  V30 39 1 37 10
M  V30 40 1 38 10
M  V30 41 1 12 39 CFG=1
M  V30 42 1 40 14
M  V30 43 1 15 41 CFG=1
M  V30 44 1 17 42 CFG=3
M  V30 45 1 43 19
M  V30 46 1 20 44 CFG=3
M  V30 47 1 45 22
M  V30 48 1 46 22
M  V30 49 1 47 22
M  V30 50 1 48 23
M  V30 51 1 49 23
M  V30 52 1 50 5
M  V30 END BOND
M  V30 END CTAB
M  END
>  <i_epik_Tot_Q>  (1) 
1

>  <i_epik_Tot_abs_Q>  (1) 
1

>  <i_i_glide_confnum>  (1) 
143

>  <i_i_glide_lignum>  (1) 
68

>  <i_i_glide_posenum>  (1) 
39

>  <i_i_glide_rotatable_bonds>  (1) 
8

>  <i_lp_mmshare_version>  (1) 
72125

>  <i_m_source_file_index>  (1) 
39

>  <i_f3d_flags>  (1) 
0

>  <num_sample>  (1) 
100

>  <b_lp_Chiralities_Consistent>  (1) 
1

>  <r_epik_Charging_Adjusted_Penalty>  (1) 
0.00073389509714513615

>  <r_epik_Ionization_Penalty>  (1) 
0.00073402386584221085

>  <r_epik_Ionization_Penalty_Charging>  (1) 
0.00073389509714513615

>  <r_epik_Ionization_Penalty_Neutral>  (1) 
1.2876869707468429e-07

>  <r_epik_State_Penalty>  (1) 
-0

>  <r_glide_ring_energy>  (1) 
0

>  <r_i_docking_score>  (1) 
-5.7525295885133962

>  <r_i_glide_ecoul>  (1) 
-1.15387645140853

>  <r_i_glide_eff_state_penalty>  (1) 
-0

>  <r_i_glide_einternal>  (1) 
5.6500270687578809

>  <r_i_glide_emodel>  (1) 
-48.014637212071719

>  <r_i_glide_emodel_strain>  (1) 
0.082153340721006884

>  <r_i_glide_energy>  (1) 
-35.849337229061064

>  <r_i_glide_erotb>  (1) 
0.82107344862339093

>  <r_i_glide_esite>  (1) 
0

>  <r_i_glide_evdw>  (1) 
-34.695460777652535

>  <r_i_glide_gscore>  (1) 
-5.7525295885133962

>  <r_i_glide_gscore_strain>  (1) 
0

>  <r_i_glide_hbond>  (1) 
0

>  <r_i_glide_ligand_efficiency>  (1) 
-0.2501099821092781

>  <r_i_glide_ligand_efficiency_ln>  (1) 
-1.3910138155569725

>  <r_i_glide_ligand_efficiency_sa>  (1) 
-0.71127951945184176

>  <r_i_glide_lipo>  (1) 
-1.7540954654106771

>  <r_i_glide_metal>  (1) 
-0

>  <r_i_glide_rewards>  (1) 
-2.9116530651322039

>  <r_lp_Energy>  (1) 
9.7708929999999992

>  <r_lp_tautomer_probability>  (1) 
1

>  <s_epik_cmdline>  (1) 
J2VwaWtfcHl0aG9uJywgJy1waHQnLCAnMS4wJywgJy1waCcsICc3LjQnLCAnLXRuJywgJzgnLCAnLW1hJywgJzUwMCcsICctaW1hZScsICc8aW5maWxlLm1hZT4nLCAnLW9tYWUnLCAnPG91dGZpbGUubWFlPic=

>  <s_epik_input>  (1) 
W0NIM11bTkhdW0NIMl1bQ0gyXVtDQEhdKFtDSDJdMSlbQ0BASF0oW09IXSlbQ0BASF0oQzE9MilTW0NAQEhdKFtDSF0yKVtDSDJdW0NIMl1bQ0gyXU4zQyg9TylbQ0gyXVtDSDJdQzM9Tw==

>  <s_glide_docking_method>  (1) 
confgen

>  <s_i_glide_gridfile>  (1) 
gpcr_drd2_6luq_protein_autoprepared_prepared

>  <s_lp_Force_Field>  (1) 
S-OPLS

>  <s_lp_Variant>  (1) 
DiffSBDD_38_num_sample_100-1

>  <s_m_source_file>  (1) 
generated__ligand_DiffSBDD_2026-05-06_prepared.sdf

>  <GenAI_Model>  (1) 
DiffSBDD

>  <Protein>  (1) 
generic_title2

$$$$
DiffSBDD_22_num_sample_100
     RDKit          3D

  0  0  0  0  0  0  0  0  0  0999 V3000
M  V30 BEGIN CTAB
M  V30 COUNTS 46 48 0 0 1
M  V30 BEGIN ATOM
M  V30 1 C 7.434848 4.631856 -17.130809 0
M  V30 2 C 5.765683 4.881509 -19.605237 0
M  V30 3 C 7.737262 5.366646 -14.818764 0
M  V30 4 C 11.118790 7.165257 -5.467236 0
M  V30 5 O 7.604156 6.929853 -12.350710 0
M  V30 6 C 4.742399 6.685796 -20.602495 0
M  V30 7 N 5.869118 5.888864 -18.664204 0
M  V30 8 C 9.021716 5.388131 -11.193722 0
M  V30 9 C 6.234839 6.605949 -16.312747 0
M  V30 10 C 8.259884 5.896679 -12.420973 0
M  V30 11 O 4.920798 4.597813 -21.743836 0 CHG=-1
M  V30 12 C 9.236214 6.459399 -7.512814 0
M  V30 13 O 11.776709 8.969326 -6.896196 0
M  V30 14 N 9.034836 6.307142 -10.022471 0 CHG=1
M  V30 15 N 8.376786 5.133305 -13.538713 0
M  V30 16 C 9.226335 5.555666 -8.755558 0
M  V30 17 C 9.979081 8.363041 -8.949275 0
M  V30 18 C 10.004932 7.421437 -10.165142 0
M  V30 19 C 8.029936 4.474572 -15.867454 0
M  V30 20 O 6.170602 3.728115 -19.451337 0
M  V30 21 C 11.036571 7.996159 -6.752044 0
M  V30 22 C 6.518931 5.697480 -17.363592 0
M  V30 23 S 5.137942 7.423614 -19.091665 0
M  V30 24 N 10.133341 7.613699 -7.694494 0
M  V30 25 C 6.833547 6.444041 -15.045228 0
M  V30 26 C 5.084028 5.389520 -20.786987 0
M  V30 27 H 7.694428 3.941685 -17.907868 0
M  V30 28 H 10.149350 7.090018 -4.977966 0
M  V30 29 H 11.497534 6.164000 -5.674198 0
M  V30 30 H 11.802683 7.634783 -4.759587 0
M  V30 31 H 4.226495 7.276272 -21.344083 0
M  V30 32 H 8.539827 4.450570 -10.911390 0
M  V30 33 H 10.040695 5.131510 -11.486504 0
M  V30 34 H 5.547301 7.422003 -16.472037 0
M  V30 35 H 8.234845 6.838055 -7.323128 0
M  V30 36 H 9.461179 5.816638 -6.665544 0
M  V30 37 H 8.964130 4.314485 -13.477930 0
M  V30 38 H 8.431836 4.815637 -8.645491 0
M  V30 39 H 10.166396 5.004109 -8.803556 0
M  V30 40 H 9.034835 8.904516 -8.910881 0
M  V30 41 H 10.748859 9.122822 -9.091665 0
M  V30 42 H 11.009154 7.014130 -10.288169 0
M  V30 43 H 9.783469 7.993183 -11.066879 0
M  V30 44 H 8.718749 3.660284 -15.702153 0
M  V30 45 H 6.588210 7.139915 -14.270138 0
M  V30 46 H 8.114276 6.754900 -9.949750 0
M  V30 END ATOM
M  V30 BEGIN BOND
M  V30 1 1 7 2
M  V30 2 2 10 5
M  V30 3 1 10 8
M  V30 4 1 14 8
M  V30 5 1 15 3
M  V30 6 1 15 10
M  V30 7 1 16 12
M  V30 8 1 16 14
M  V30 9 1 18 14
M  V30 10 1 18 17
M  V30 11 2 19 1
M  V30 12 1 19 3
M  V30 13 2 20 2
M  V30 14 1 21 4
M  V30 15 2 21 13
M  V30 16 1 22 1
M  V30 17 1 22 7
M  V30 18 2 22 9
M  V30 19 1 23 6
M  V30 20 1 23 7
M  V30 21 1 24 12
M  V30 22 1 24 17
M  V30 23 1 24 21
M  V30 24 2 25 3
M  V30 25 1 25 9
M  V30 26 1 26 2
M  V30 27 2 26 6
M  V30 28 1 26 11
M  V30 29 1 27 1
M  V30 30 1 28 4
M  V30 31 1 29 4
M  V30 32 1 30 4
M  V30 33 1 31 6
M  V30 34 1 32 8
M  V30 35 1 33 8
M  V30 36 1 34 9
M  V30 37 1 35 12
M  V30 38 1 36 12
M  V30 39 1 37 15
M  V30 40 1 38 16
M  V30 41 1 39 16
M  V30 42 1 40 17
M  V30 43 1 41 17
M  V30 44 1 42 18
M  V30 45 1 43 18
M  V30 46 1 44 19
M  V30 47 1 45 25
M  V30 48 1 46 14
M  V30 END BOND
M  V30 END CTAB
M  END
>  <i_epik_Tot_Q>  (1) 
0

>  <i_epik_Tot_abs_Q>  (1) 
2

>  <i_i_glide_confnum>  (1) 
6

>  <i_i_glide_lignum>  (1) 
35

>  <i_i_glide_posenum>  (1) 
32

>  <i_i_glide_rotatable_bonds>  (1) 
6

>  <i_lp_mmshare_version>  (1) 
72125

>  <i_m_source_file_index>  (1) 
23

>  <i_f3d_flags>  (1) 
0

>  <num_sample>  (1) 
100

>  <b_lp_Chiralities_Consistent>  (1) 
1

>  <r_epik_Charging_Adjusted_Penalty>  (1) 
0.707433222311869

>  <r_epik_Ionization_Penalty>  (1) 
0.35375602504973802

>  <r_epik_Ionization_Penalty_Charging>  (1) 
0.35374474494757885

>  <r_epik_Ionization_Penalty_Neutral>  (1) 
1.1280102159195983e-05

>  <r_epik_State_Penalty>  (1) 
0.35368847736429015

>  <r_glide_ring_energy>  (1) 
0

>  <r_i_docking_score>  (1) 
-5.7484406055526378

>  <r_i_glide_ecoul>  (1) 
-6.8231811065938262

>  <r_i_glide_eff_state_penalty>  (1) 
0.35368847736429015

>  <r_i_glide_einternal>  (1) 
1.6157583025276026

>  <r_i_glide_emodel>  (1) 
-64.151376608169116

>  <r_i_glide_emodel_strain>  (1) 
0

>  <r_i_glide_energy>  (1) 
-44.063565489648852

>  <r_i_glide_erotb>  (1) 
0.68302654267105212

>  <r_i_glide_esite>  (1) 
-0.15482254861298167

>  <r_i_glide_evdw>  (1) 
-37.240384383055023

>  <r_i_glide_gscore>  (1) 
-6.1021290829169281

>  <r_i_glide_gscore_strain>  (1) 
0

>  <r_i_glide_hbond>  (1) 
-0.20000000000000001

>  <r_i_glide_ligand_efficiency>  (1) 
-0.22109386944433224

>  <r_i_glide_ligand_efficiency_ln>  (1) 
-1.3500024140419424

>  <r_i_glide_ligand_efficiency_sa>  (1) 
-0.65498971897780678

>  <r_i_glide_lipo>  (1) 
-1.6883608659951219

>  <r_i_glide_metal>  (1) 
-0

>  <r_i_glide_rewards>  (1) 
-1.8564758258380525

>  <r_lp_Energy>  (1) 
50.884591999999998

>  <r_lp_tautomer_probability>  (1) 
1

>  <s_epik_cmdline>  (1) 
J2VwaWtfcHl0aG9uJywgJy1waHQnLCAnMS4wJywgJy1waCcsICc3LjQnLCAnLXRuJywgJzgnLCAnLW1hJywgJzUwMCcsICctaW1hZScsICc8aW5maWxlLm1hZT4nLCAnLW9tYWUnLCAnPG91dGZpbGUubWFlPic=

>  <s_epik_input>  (1) 
Tz1DMVtDSDJdU04oQzE9TyljKFtjSF1bY0hdMilbY0hdW2NIXWMyW05IXUMoPU8pW0NIMl1OM1tDSDJdW0NIMl1OKFtDSDJdW0NIMl0zKUMoPU8pW0NIM10=

>  <s_glide_docking_method>  (1) 
confgen

>  <s_i_glide_gridfile>  (1) 
gpcr_drd2_6luq_protein_autoprepared_prepared

>  <s_lp_Force_Field>  (1) 
S-OPLS

>  <s_lp_Variant>  (1) 
DiffSBDD_22_num_sample_100-1

>  <s_m_source_file>  (1) 
generated__ligand_DiffSBDD_2026-05-06_prepared.sdf

>  <GenAI_Model>  (1) 
DiffSBDD

>  <Protein>  (1) 
generic_title2

$$$$
DiffSBDD_0_num_sample_100
     RDKit          3D

  0  0  0  0  0  0  0  0  0  0999 V3000
M  V30 BEGIN CTAB
M  V30 COUNTS 105 110 0 0 1
M  V30 BEGIN ATOM
M  V30 1 C 5.466894 4.650581 -11.449178 0
M  V30 2 C 10.985245 0.245195 -19.093597 0
M  V30 3 O 11.877147 3.341431 -18.409217 0
M  V30 4 C 11.400874 4.278998 -19.336094 0 CFG=1
M  V30 5 S 7.834487 -2.930360 -18.487808 0
M  V30 6 C 6.997448 5.031410 -13.517308 0 CFG=1
M  V30 7 C 6.075000 6.461364 -16.317034 0
M  V30 8 C 8.796505 5.098461 -17.997901 0 CFG=2
M  V30 9 C 14.554222 1.719519 -18.344226 0
M  V30 10 C 6.634845 5.056484 -16.584149 0
M  V30 11 C 8.484824 4.881212 -14.023867 0 CFG=1
M  V30 12 C 6.598363 7.151607 -15.044885 0
M  V30 13 C 8.173175 -0.416828 -17.590889 0 CFG=1
M  V30 14 O 6.388040 -2.468127 -18.670076 0
M  V30 15 C 8.218069 1.674456 -17.850923 0 CFG=2
M  V30 16 N 14.658509 3.986937 -17.362382 0 CHG=1
M  V30 17 C 9.216899 5.302206 -11.598108 0
M  V30 18 O 7.847123 -4.310563 -17.491653 0
M  V30 19 O 6.074242 2.214916 -18.691711 0
M  V30 20 C 8.365971 0.480353 -18.831035 0 CFG=1
M  V30 21 C 8.926743 4.949501 -15.541687 0
M  V30 22 C 14.414595 6.106848 -16.104455 0
M  V30 23 O 6.893496 2.069347 -17.490762 0
M  V30 24 O 9.178223 2.719249 -17.937248 0
M  V30 25 S 10.624279 4.969318 -15.891664 0
M  V30 26 C 9.358922 5.746299 -13.062948 0
M  V30 27 C 12.223735 0.110149 -20.019026 0
M  V30 28 C 9.427767 1.406025 -20.936504 0
M  V30 29 C 13.968469 0.335627 -18.071752 0
M  V30 30 C 13.527530 -0.392799 -19.342625 0
M  V30 31 C 10.215345 5.563904 -17.564156 0 CFG=1
M  V30 32 O 17.033267 4.969234 -17.843403 0
M  V30 33 C 15.226010 4.819205 -16.286592 0 CFG=2
M  V30 34 C 9.587407 0.377642 -19.777925 0 CFG=1
M  V30 35 C 14.626426 2.547467 -17.058079 0
M  V30 36 C 10.021095 3.871127 -19.909971 0 CFG=1
M  V30 37 C 16.690603 5.134704 -16.649208 0
M  V30 38 C 11.321690 5.602231 -18.609284 0
M  V30 39 N 7.809923 5.395246 -11.158409 0 CHG=1
M  V30 40 O 17.435172 5.520236 -15.725611 0 CHG=-1
M  V30 41 N 8.680816 -1.776659 -17.505487 0
M  V30 42 C 6.896792 4.608431 -12.017779 0 CFG=1
M  V30 43 C 10.183771 2.753737 -20.979913 0
M  V30 44 C 8.133931 5.014150 -16.620282 0
M  V30 45 C 6.313785 6.414261 -13.733038 0
M  V30 46 C 8.890279 3.778815 -18.834113 0 CFG=2
M  V30 47 C 8.718243 0.733006 -16.754129 0
M  V30 48 H 4.758468 4.169326 -12.123203 0
M  V30 49 H 5.117473 5.670930 -11.282722 0
M  V30 50 H 5.415658 4.135424 -10.489831 0
M  V30 51 H 11.141841 1.068545 -18.411517 0
M  V30 52 H 10.961083 -0.630992 -18.448985 0
M  V30 53 H 11.128559 3.058389 -17.895021 0
M  V30 54 H 12.140037 4.374903 -20.131788 0
M  V30 55 H 6.386220 4.260937 -13.967478 0
M  V30 56 H 4.987458 6.402845 -16.272710 0
M  V30 57 H 6.304279 7.097475 -17.173006 0
M  V30 58 H 8.326792 5.882219 -18.593713 0
M  V30 59 H 13.955226 2.225095 -19.098280 0
M  V30 60 H 15.546377 1.627092 -18.789693 0
M  V30 61 H 6.255283 4.326995 -15.891520 0
M  V30 62 H 6.270552 4.726849 -17.557233 0
M  V30 63 H 8.743576 3.844722 -13.798453 0
M  V30 64 H 7.664298 7.351005 -15.091646 0
M  V30 65 H 6.131536 8.136340 -14.997106 0
M  V30 66 H 7.106658 -0.496168 -17.367249 0
M  V30 67 H 13.724512 4.285704 -17.609198 0
M  V30 68 H 9.827625 5.935117 -10.953176 0
M  V30 69 H 9.574685 4.278873 -11.472773 0
M  V30 70 H 7.731013 -4.019350 -16.592000 0
M  V30 71 H 5.698488 1.349008 -18.759717 0
M  V30 72 H 7.468391 0.347465 -19.433446 0
M  V30 73 H 14.669766 6.569296 -15.153384 0
M  V30 74 H 13.348043 5.894967 -16.061300 0
M  V30 75 H 14.586492 6.827723 -16.905673 0
M  V30 76 H 10.415975 5.716040 -13.319191 0
M  V30 77 H 9.064616 6.794865 -13.093256 0
M  V30 78 H 11.982613 -0.571050 -20.835410 0
M  V30 79 H 12.454750 1.057738 -20.490903 0
M  V30 80 H 8.368170 1.612854 -21.092025 0
M  V30 81 H 9.725830 0.882832 -21.846595 0
M  V30 82 H 14.723595 -0.261463 -17.557193 0
M  V30 83 H 13.127021 0.396965 -17.382224 0
M  V30 84 H 14.338969 -0.376181 -20.070559 0
M  V30 85 H 13.434910 -1.430698 -19.056662 0
M  V30 86 H 10.062456 6.569316 -17.307893 0
M  V30 87 H 15.182188 4.266487 -15.348106 0
M  V30 88 H 9.462405 -0.587295 -20.272421 0
M  V30 89 H 13.759588 2.370975 -16.419035 0
M  V30 90 H 15.504001 2.245641 -16.484275 0
M  V30 91 H 9.722601 4.735670 -20.506223 0
M  V30 92 H 12.277209 5.876934 -18.163320 0
M  V30 93 H 11.094734 6.386930 -19.333434 0
M  V30 94 H 7.735171 5.066501 -10.205588 0
M  V30 95 H 9.682049 -1.827061 -17.615253 0
M  V30 96 H 7.223610 3.569298 -11.954770 0
M  V30 97 H 11.238420 2.574490 -21.158967 0
M  V30 98 H 9.876249 3.204971 -21.924666 0
M  V30 99 H 5.233790 6.301439 -13.635534 0
M  V30 100 H 6.606990 7.087999 -12.927463 0
M  V30 101 H 7.950154 3.628728 -19.358452 0
M  V30 102 H 8.252552 0.857098 -15.775068 0
M  V30 103 H 9.802299 0.733690 -16.691664 0
M  V30 104 H 15.289164 4.156918 -18.139041 0
M  V30 105 H 7.517064 6.365746 -11.157331 0
M  V30 END ATOM
M  V30 BEGIN BOND
M  V30 1 1 4 3
M  V30 2 1 10 7
M  V30 3 1 11 6
M  V30 4 1 12 7
M  V30 5 2 14 5
M  V30 6 1 5 18 CFG=1
M  V30 7 1 20 13
M  V30 8 1 20 15
M  V30 9 1 21 11
M  V30 10 1 15 23 CFG=1
M  V30 11 1 23 19
M  V30 12 1 24 15
M  V30 13 1 25 21
M  V30 14 1 26 11
M  V30 15 1 26 17
M  V30 16 1 27 2
M  V30 17 1 29 9
M  V30 18 1 30 27
M  V30 19 1 30 29
M  V30 20 1 31 8
M  V30 21 1 31 25
M  V30 22 1 33 16
M  V30 23 1 33 22
M  V30 24 1 34 2
M  V30 25 1 34 20
M  V30 26 1 34 28
M  V30 27 1 35 9
M  V30 28 1 35 16
M  V30 29 1 36 4
M  V30 30 2 37 32
M  V30 31 1 37 33
M  V30 32 1 38 4
M  V30 33 1 38 31
M  V30 34 1 39 17
M  V30 35 1 40 37
M  V30 36 1 41 5
M  V30 37 1 41 13
M  V30 38 1 42 1
M  V30 39 1 42 6
M  V30 40 1 42 39
M  V30 41 1 43 28
M  V30 42 1 43 36
M  V30 43 1 44 8
M  V30 44 1 44 10
M  V30 45 2 44 21
M  V30 46 1 45 6
M  V30 47 1 45 12
M  V30 48 1 46 8
M  V30 49 1 46 24
M  V30 50 1 46 36
M  V30 51 1 47 13
M  V30 52 1 47 15
M  V30 53 1 48 1
M  V30 54 1 49 1
M  V30 55 1 50 1
M  V30 56 1 51 2
M  V30 57 1 52 2
M  V30 58 1 53 3
M  V30 59 1 4 54 CFG=3
M  V30 60 1 6 55 CFG=3
M  V30 61 1 56 7
M  V30 62 1 57 7
M  V30 63 1 8 58 CFG=3
M  V30 64 1 59 9
M  V30 65 1 60 9
M  V30 66 1 61 10
M  V30 67 1 62 10
M  V30 68 1 11 63 CFG=1
M  V30 69 1 64 12
M  V30 70 1 65 12
M  V30 71 1 13 66 CFG=1
M  V30 72 1 67 16
M  V30 73 1 68 17
M  V30 74 1 69 17
M  V30 75 1 70 18
M  V30 76 1 71 19
M  V30 77 1 20 72 CFG=3
M  V30 78 1 73 22
M  V30 79 1 74 22
M  V30 80 1 75 22
M  V30 81 1 76 26
M  V30 82 1 77 26
M  V30 83 1 78 27
M  V30 84 1 79 27
M  V30 85 1 80 28
M  V30 86 1 81 28
M  V30 87 1 82 29
M  V30 88 1 83 29
M  V30 89 1 84 30
M  V30 90 1 85 30
M  V30 91 1 31 86 CFG=1
M  V30 92 1 33 87 CFG=1
M  V30 93 1 34 88 CFG=3
M  V30 94 1 89 35
M  V30 95 1 90 35
M  V30 96 1 36 91 CFG=3
M  V30 97 1 92 38
M  V30 98 1 93 38
M  V30 99 1 94 39
M  V30 100 1 95 41
M  V30 101 1 42 96 CFG=3
M  V30 102 1 97 43
M  V30 103 1 98 43
M  V30 104 1 99 45
M  V30 105 1 100 45
M  V30 106 1 46 101 CFG=3
M  V30 107 1 102 47
M  V30 108 1 103 47
M  V30 109 1 104 16
M  V30 110 1 105 39
M  V30 END BOND
M  V30 END CTAB
M  END
>  <i_epik_Tot_Q>  (1) 
1

>  <i_epik_Tot_abs_Q>  (1) 
3

>  <i_i_glide_confnum>  (1) 
378

>  <i_i_glide_lignum>  (1) 
2

>  <i_i_glide_posenum>  (1) 
58

>  <i_i_glide_rotatable_bonds>  (1) 
15

>  <i_lp_mmshare_version>  (1) 
72125

>  <i_m_source_file_index>  (1) 
1

>  <i_f3d_flags>  (1) 
0

>  <num_sample>  (1) 
100

>  <b_lp_Chiralities_Consistent>  (1) 
1

>  <r_epik_Charging_Adjusted_Penalty>  (1) 
0.0032360822409407838

>  <r_epik_Ionization_Penalty>  (1) 
0.0033274947784888795

>  <r_epik_Ionization_Penalty_Charging>  (1) 
0.0032360822409407838

>  <r_epik_Ionization_Penalty_Neutral>  (1) 
9.1412537548095675e-05

>  <r_epik_State_Penalty>  (1) 
-0

>  <r_glide_ring_energy>  (1) 
0

>  <r_i_docking_score>  (1) 
-5.7455319406970959

>  <r_i_glide_ecoul>  (1) 
-8.0494846845983439

>  <r_i_glide_eff_state_penalty>  (1) 
-0

>  <r_i_glide_einternal>  (1) 
7.7267181276236236

>  <r_i_glide_emodel>  (1) 
-46.028887688594907

>  <r_i_glide_emodel_strain>  (1) 
4.0989650530975013

>  <r_i_glide_energy>  (1) 
-39.16528622726338

>  <r_i_glide_erotb>  (1) 
0.30458455882301022

>  <r_i_glide_esite>  (1) 
-0.12078751671474763

>  <r_i_glide_evdw>  (1) 
-31.115801542665036

>  <r_i_glide_gscore>  (1) 
-5.7455319406970959

>  <r_i_glide_gscore_strain>  (1) 
0.024741263274375314

>  <r_i_glide_hbond>  (1) 
-0.49714754847081749

>  <r_i_glide_ligand_efficiency>  (1) 
-0.12224536044036374

>  <r_i_glide_ligand_efficiency_ln>  (1) 
-1.1846097093357209

>  <r_i_glide_ligand_efficiency_sa>  (1) 
-0.44116224493313982

>  <r_i_glide_lipo>  (1) 
-2.2118127572982926

>  <r_i_glide_metal>  (1) 
-0

>  <r_i_glide_rewards>  (1) 
-0.48189716048762116

>  <r_lp_Energy>  (1) 
59.080839999999995

>  <r_lp_tautomer_probability>  (1) 
1

>  <s_epik_cmdline>  (1) 
J2VwaWtfcHl0aG9uJywgJy1waHQnLCAnMS4wJywgJy1waCcsICc3LjQnLCAnLXRuJywgJzgnLCAnLW1hJywgJzUwMCcsICctaW1hZScsICc8aW5maWxlLm1hZT4nLCAnLW9tYWUnLCAnPG91dGZpbGUubWFlPic=

>  <s_epik_input>  (1) 
W0NIM11bQ0BASF0xW05IXVtDSDJdW0NIMl1bQ0BIXTJbQ0BASF0xW0NIMl1bQ0gyXVtDSDJdW0NIMl1DMz1DMlNbQ0BASF0oW0NIMl1bQ0BIXTRbT0hdKVtDQEhdM1tDQEhdKE81KVtDQEBIXTRbQ0gyXVtDSDJdW0NASF0oW0NASF0oW0NAXTU2T1tPSF0pW0NASF0oW0NIMl02KVtOSF1bU0BdKD1PKVtPSF0pW0NIMl1bQ0gyXVtDSDJdW0NIMl1bQ0gyXVtDSDJdW05IXVtDQEhdKFtDSDNdKUMoPU8pW09IXQ==

>  <s_glide_docking_method>  (1) 
confgen

>  <s_i_glide_gridfile>  (1) 
gpcr_drd2_6luq_protein_autoprepared_prepared

>  <s_lp_Force_Field>  (1) 
S-OPLS

>  <s_lp_Variant>  (1) 
DiffSBDD_0_num_sample_100-2

>  <s_m_source_file>  (1) 
generated__ligand_DiffSBDD_2026-05-06_prepared.sdf

>  <GenAI_Model>  (1) 
DiffSBDD

>  <Protein>  (1) 
generic_title2

$$$$
DiffSBDD_44_num_sample_100
     RDKit          3D

  0  0  0  0  0  0  0  0  0  0999 V3000
M  V30 BEGIN CTAB
M  V30 COUNTS 56 58 0 0 1
M  V30 BEGIN ATOM
M  V30 1 C 5.487661 3.978783 -13.087176 0
M  V30 2 C 6.809533 4.623018 -13.577965 0 CFG=1
M  V30 3 C 12.069566 8.995635 -4.994011 0
M  V30 4 C 12.034580 7.082039 -2.934688 0
M  V30 5 C 11.432330 6.779931 -4.175469 0
M  V30 6 C 9.776081 7.247326 -11.272650 0
M  V30 7 C 7.417093 3.777657 -14.687061 0
M  V30 8 N 6.636446 5.916198 -14.304515 0 CFG=1 CHG=1
M  V30 9 C 10.705292 7.642428 -10.109128 0
M  V30 10 C 10.844841 8.170040 -7.606208 0
M  V30 11 O 11.517864 9.184058 -7.743793 0
M  V30 12 C 12.661431 8.309008 -2.740149 0
M  V30 13 N 12.002407 6.169344 -1.899903 0
M  V30 14 C 7.452082 4.426529 -16.048843 0
M  V30 15 N 10.779758 7.424422 -6.496006 0
M  V30 16 C 9.949544 5.788726 -11.721134 0
M  V30 17 O 7.478997 4.569644 -11.267110 0
M  V30 18 C 9.591904 6.256429 -8.149665 0
M  V30 19 C 6.601363 5.674921 -15.772835 0
M  V30 20 N 8.970995 5.437225 -12.730484 0
M  V30 21 C 5.578852 6.808920 -13.797156 0
M  V30 22 C 9.997579 7.639607 -8.738833 0 CFG=2
M  V30 23 C 10.023351 6.207137 -6.652041 0
M  V30 24 C 11.434838 7.742042 -5.220349 0
M  V30 25 C 7.792167 4.868088 -12.418994 0
M  V30 26 C 12.686805 9.252019 -3.763431 0
M  V30 27 O 7.835173 2.639069 -14.493192 0
M  V30 28 H 5.661445 2.959053 -12.739795 0
M  V30 29 H 5.045872 4.525946 -12.252188 0
M  V30 30 H 4.741025 3.932308 -13.876179 0
M  V30 31 H 12.095103 9.756951 -5.744343 0
M  V30 32 H 10.952175 5.823450 -4.316809 0
M  V30 33 H 8.736155 7.436417 -10.997207 0
M  V30 34 H 9.976574 7.896331 -12.125656 0
M  V30 35 H 11.068320 8.654349 -10.296911 0
M  V30 36 H 11.596616 7.015515 -10.085802 0
M  V30 37 H 13.132445 8.532517 -1.793393 0
M  V30 38 H 12.490732 6.339144 -1.034386 0
M  V30 39 H 11.584222 5.251365 -2.015340 0
M  V30 40 H 8.480749 4.681801 -16.304979 0
M  V30 41 H 7.034298 3.786643 -16.825185 0
M  V30 42 H 10.939391 5.655213 -12.157483 0
M  V30 43 H 9.856193 5.109178 -10.873964 0
M  V30 44 H 8.517742 6.092939 -8.254105 0
M  V30 45 H 10.086098 5.447461 -8.686956 0
M  V30 46 H 6.956036 6.547303 -16.322801 0
M  V30 47 H 5.572499 5.494169 -16.086554 0
M  V30 48 H 9.191950 5.643111 -13.692287 0
M  V30 49 H 4.634860 6.280566 -13.855737 0
M  V30 50 H 5.758717 7.080248 -12.755477 0
M  V30 51 H 5.516291 7.727089 -14.383804 0
M  V30 52 H 9.117060 8.283177 -8.785326 0
M  V30 53 H 10.697473 5.369313 -6.503370 0
M  V30 54 H 9.175275 6.169363 -5.966088 0
M  V30 55 H 13.183679 10.169341 -3.603028 0
M  V30 56 H 7.499704 6.413649 -14.142894 0
M  V30 END ATOM
M  V30 BEGIN BOND
M  V30 1 1 2 1 CFG=1
M  V30 2 2 5 4
M  V30 3 1 7 2
M  V30 4 1 8 2
M  V30 5 1 9 6
M  V30 6 2 11 10
M  V30 7 1 12 4
M  V30 8 1 13 4
M  V30 9 1 14 7
M  V30 10 1 15 10
M  V30 11 1 16 6
M  V30 12 1 19 8
M  V30 13 1 19 14
M  V30 14 1 20 16
M  V30 15 1 21 8
M  V30 16 1 22 9
M  V30 17 1 22 10
M  V30 18 1 22 18
M  V30 19 1 23 15
M  V30 20 1 23 18
M  V30 21 2 24 3
M  V30 22 1 24 5
M  V30 23 1 24 15
M  V30 24 1 25 2
M  V30 25 2 25 17
M  V30 26 1 25 20
M  V30 27 1 26 3
M  V30 28 2 26 12
M  V30 29 2 27 7
M  V30 30 1 28 1
M  V30 31 1 29 1
M  V30 32 1 30 1
M  V30 33 1 31 3
M  V30 34 1 32 5
M  V30 35 1 33 6
M  V30 36 1 34 6
M  V30 37 1 35 9
M  V30 38 1 36 9
M  V30 39 1 37 12
M  V30 40 1 38 13
M  V30 41 1 39 13
M  V30 42 1 40 14
M  V30 43 1 41 14
M  V30 44 1 42 16
M  V30 45 1 43 16
M  V30 46 1 44 18
M  V30 47 1 45 18
M  V30 48 1 46 19
M  V30 49 1 47 19
M  V30 50 1 48 20
M  V30 51 1 49 21
M  V30 52 1 50 21
M  V30 53 1 51 21
M  V30 54 1 22 52 CFG=3
M  V30 55 1 53 23
M  V30 56 1 54 23
M  V30 57 1 55 26
M  V30 58 1 8 56 CFG=3
M  V30 END BOND
M  V30 END CTAB
M  END
>  <i_epik_Tot_Q>  (1) 
1

>  <i_epik_Tot_abs_Q>  (1) 
1

>  <i_i_glide_confnum>  (1) 
211

>  <i_i_glide_lignum>  (1) 
81

>  <i_i_glide_posenum>  (1) 
39

>  <i_i_glide_rotatable_bonds>  (1) 
7

>  <i_lp_mmshare_version>  (1) 
72125

>  <i_m_source_file_index>  (1) 
45

>  <i_f3d_flags>  (1) 
0

>  <num_sample>  (1) 
100

>  <b_lp_Chiralities_Consistent>  (1) 
1

>  <r_epik_Charging_Adjusted_Penalty>  (1) 
0.87787264938008924

>  <r_epik_Ionization_Penalty>  (1) 
0.44040452980928141

>  <r_epik_Ionization_Penalty_Charging>  (1) 
0.43893632469004462

>  <r_epik_Ionization_Penalty_Neutral>  (1) 
0.0014682051192367804

>  <r_epik_State_Penalty>  (1) 
0.43893632469004457

>  <r_glide_ring_energy>  (1) 
0

>  <r_i_docking_score>  (1) 
-5.7312096079617652

>  <r_i_glide_ecoul>  (1) 
-3.8815102655107125

>  <r_i_glide_eff_state_penalty>  (1) 
0.43893632469004457

>  <r_i_glide_einternal>  (1) 
9.9118321606455346

>  <r_i_glide_emodel>  (1) 
-45.184470472494077

>  <r_i_glide_emodel_strain>  (1) 
0.026799517808669293

>  <r_i_glide_energy>  (1) 
-37.223667623906536

>  <r_i_glide_erotb>  (1) 
0.96983297192060391

>  <r_i_glide_esite>  (1) 
0

>  <r_i_glide_evdw>  (1) 
-33.342157358395824

>  <r_i_glide_gscore>  (1) 
-6.1701459326518098

>  <r_i_glide_gscore_strain>  (1) 
0

>  <r_i_glide_hbond>  (1) 
0

>  <r_i_glide_ligand_efficiency>  (1) 
-0.21226702251710242

>  <r_i_glide_ligand_efficiency_ln>  (1) 
-1.3341311103586002

>  <r_i_glide_ligand_efficiency_sa>  (1) 
-0.63680106755130739

>  <r_i_glide_lipo>  (1) 
-2.420088833506838

>  <r_i_glide_metal>  (1) 
-0

>  <r_i_glide_rewards>  (1) 
-2.470555663319177

>  <r_lp_Energy>  (1) 
28.974819999999998

>  <r_lp_tautomer_probability>  (1) 
0.99995000000000001

>  <s_epik_cmdline>  (1) 
J2VwaWtfcHl0aG9uJywgJy1waHQnLCAnMS4wJywgJy1waCcsICc3LjQnLCAnLXRuJywgJzgnLCAnLW1hJywgJzUwMCcsICctaW1hZScsICc8aW5maWxlLm1hZT4nLCAnLW9tYWUnLCAnPG91dGZpbGUubWFlPic=

>  <s_epik_input>  (1) 
W0NIM11OMVtDSDJdW0NIMl1DKD1PKVtDQEBdMShbQ0gzXSlDKD1PKVtOSF1bQ0gyXVtDSDJdW0NIMl1bQ0BASF0yW0NIMl1bQ0gyXU4oQzI9TyljKFtjSF1bY0hdW2NIXTMpW2NIXWMzW05IMl0=

>  <s_glide_docking_method>  (1) 
confgen

>  <s_i_glide_gridfile>  (1) 
gpcr_drd2_6luq_protein_autoprepared_prepared

>  <s_lp_Force_Field>  (1) 
S-OPLS

>  <s_lp_Variant>  (1) 
DiffSBDD_44_num_sample_100-6

>  <s_m_source_file>  (1) 
generated__ligand_DiffSBDD_2026-05-06_prepared.sdf

>  <GenAI_Model>  (1) 
DiffSBDD

>  <Protein>  (1) 
generic_title2

$$$$
DiffSBDD_47_num_sample_100
     RDKit          3D

  0  0  0  0  0  0  0  0  0  0999 V3000
M  V30 BEGIN CTAB
M  V30 COUNTS 61 67 0 0 1
M  V30 BEGIN ATOM
M  V30 1 C 6.902057 -0.231217 -15.889243 0 CFG=1
M  V30 2 N 8.015896 4.000959 -16.033526 0
M  V30 3 N 12.232615 9.369140 -6.368793 0
M  V30 4 C 5.273003 5.984184 -10.806726 0
M  V30 5 C 9.567973 8.534796 -9.972503 0
M  V30 6 C 7.483056 1.875758 -14.658880 0
M  V30 7 C 7.092398 0.572512 -14.646350 0
M  V30 8 C 11.278144 9.091138 -5.478415 0
M  V30 9 N 10.315865 8.288317 -5.891748 0
M  V30 10 N 8.234794 7.104997 -11.491849 0 CHG=1
M  V30 11 N 7.434034 4.691085 -13.865378 0
M  V30 12 N 10.273446 7.374992 -9.445055 0
M  V30 13 N 8.103099 3.705521 -13.268800 0
M  V30 14 C 11.748704 8.609782 -7.470101 0
M  V30 15 C 10.598087 7.965548 -7.175967 0
M  V30 16 C 7.710216 1.898698 -17.077933 0
M  V30 17 C 9.151339 8.255832 -11.423839 0
M  V30 18 N 12.353335 8.521838 -8.700468 0
M  V30 19 C 7.610690 5.004508 -15.184811 0
M  V30 20 C 7.548958 6.967817 -12.789179 0
M  V30 21 O 7.431579 6.143945 -15.603713 0
M  V30 22 O 5.434839 5.755736 -13.258714 0
M  V30 23 F 6.893530 -0.039627 -13.463372 0
M  V30 24 C 9.801783 7.090436 -8.055379 0 CFG=2
M  V30 25 C 9.985843 5.605548 -7.758124 0
M  V30 26 C 11.753378 7.574036 -9.657082 0
M  V30 27 C 7.717932 2.512087 -13.405261 0
M  V30 28 C 6.824626 5.631790 -12.951999 0 CFG=1
M  V30 29 C 5.742485 5.168252 -11.991708 0 CFG=1
M  V30 30 C 7.374818 0.458740 -17.158262 0 CFG=2
M  V30 31 C 7.756766 2.592398 -15.924311 0
M  V30 32 C 5.680143 -1.117931 -16.055209 0
M  V30 33 C 5.923890 0.066208 -16.962343 0 CFG=1
M  V30 34 H 8.233356 4.303236 -16.970931 0
M  V30 35 H 5.890234 5.768665 -9.934965 0
M  V30 36 H 5.334230 7.048575 -11.031720 0
M  V30 37 H 4.235644 5.769514 -10.559173 0
M  V30 38 H 10.250188 9.369256 -9.891648 0
M  V30 39 H 8.711438 8.846254 -9.374689 0
M  V30 40 H 11.293728 9.498638 -4.478476 0
M  V30 41 H 7.539613 7.267178 -10.754016 0
M  V30 42 H 9.519924 7.973244 -5.355511 0
M  V30 43 H 7.887959 2.407150 -18.014348 0
M  V30 44 H 10.017409 8.069802 -12.058759 0
M  V30 45 H 8.637130 9.132657 -11.819675 0
M  V30 46 H 13.241657 8.966700 -8.892566 0
M  V30 47 H 8.256384 7.135226 -13.587897 0
M  V30 48 H 6.816348 7.768634 -12.873782 0
M  V30 49 H 8.738369 7.311446 -7.947719 0
M  V30 50 H 9.620550 5.378692 -6.759097 0
M  V30 51 H 9.427685 4.987082 -8.461050 0
M  V30 52 H 11.033089 5.314600 -7.805768 0
M  V30 53 H 12.230571 6.618916 -9.491833 0
M  V30 54 H 11.973668 7.874389 -10.681707 0
M  V30 55 H 7.567514 1.876092 -12.536653 0
M  V30 56 H 5.547129 4.099756 -11.929428 0
M  V30 57 H 7.991173 -0.122018 -17.841731 0
M  V30 58 H 4.869414 -1.030699 -15.335809 0
M  V30 59 H 5.829319 -2.109428 -16.479317 0
M  V30 60 H 5.238871 0.895601 -16.809652 0
M  V30 61 H 8.751378 6.267736 -11.264205 0
M  V30 END ATOM
M  V30 BEGIN BOND
M  V30 1 1 7 1
M  V30 2 2 7 6
M  V30 3 2 8 3
M  V30 4 1 9 8
M  V30 5 1 12 5
M  V30 6 1 13 11
M  V30 7 1 14 3
M  V30 8 1 15 9
M  V30 9 2 15 14
M  V30 10 1 17 5
M  V30 11 1 17 10
M  V30 12 1 18 14
M  V30 13 1 19 2
M  V30 14 1 19 11
M  V30 15 1 20 10
M  V30 16 2 21 19
M  V30 17 1 23 7
M  V30 18 1 24 12
M  V30 19 1 24 15
M  V30 20 1 25 24
M  V30 21 1 26 12
M  V30 22 1 26 18
M  V30 23 1 27 6
M  V30 24 2 27 13
M  V30 25 1 28 11
M  V30 26 1 28 20 CFG=1
M  V30 27 1 28 22
M  V30 28 1 29 4
M  V30 29 1 29 22
M  V30 30 1 29 28
M  V30 31 1 30 1
M  V30 32 1 30 16
M  V30 33 1 31 2
M  V30 34 1 31 6
M  V30 35 2 31 16
M  V30 36 1 1 32 CFG=3
M  V30 37 1 33 1
M  V30 38 1 33 30
M  V30 39 1 33 32
M  V30 40 1 34 2
M  V30 41 1 35 4
M  V30 42 1 36 4
M  V30 43 1 37 4
M  V30 44 1 38 5
M  V30 45 1 39 5
M  V30 46 1 40 8
M  V30 47 1 41 10
M  V30 48 1 42 9
M  V30 49 1 43 16
M  V30 50 1 44 17
M  V30 51 1 45 17
M  V30 52 1 46 18
M  V30 53 1 47 20
M  V30 54 1 48 20
M  V30 55 1 24 49 CFG=3
M  V30 56 1 50 25
M  V30 57 1 51 25
M  V30 58 1 52 25
M  V30 59 1 53 26
M  V30 60 1 54 26
M  V30 61 1 55 27
M  V30 62 1 29 56 CFG=3
M  V30 63 1 30 57 CFG=3
M  V30 64 1 58 32
M  V30 65 1 59 32
M  V30 66 1 33 60 CFG=1
M  V30 67 1 61 10
M  V30 END BOND
M  V30 END CTAB
M  END
>  <i_epik_Tot_Q>  (1) 
1

>  <i_epik_Tot_abs_Q>  (1) 
1

>  <i_i_glide_confnum>  (1) 
74

>  <i_i_glide_lignum>  (1) 
87

>  <i_i_glide_posenum>  (1) 
61

>  <i_i_glide_rotatable_bonds>  (1) 
6

>  <i_lp_mmshare_version>  (1) 
72125

>  <i_m_source_file_index>  (1) 
48

>  <i_f3d_flags>  (1) 
2

>  <num_sample>  (1) 
100

>  <b_lp_Chiralities_Consistent>  (1) 
0

>  <r_epik_Charging_Adjusted_Penalty>  (1) 
0.25375292515256775

>  <r_epik_Ionization_Penalty>  (1) 
0.18021772770564537

>  <r_epik_Ionization_Penalty_Charging>  (1) 
0.12840531132269745

>  <r_epik_Ionization_Penalty_Neutral>  (1) 
0.05181241638294791

>  <r_epik_State_Penalty>  (1) 
0.12534761382987034

>  <r_glide_ring_energy>  (1) 
0

>  <r_i_docking_score>  (1) 
-5.7204134583433728

>  <r_i_glide_ecoul>  (1) 
-8.1713795191870133

>  <r_i_glide_eff_state_penalty>  (1) 
0.12534761382987034

>  <r_i_glide_einternal>  (1) 
15.379000680982809

>  <r_i_glide_emodel>  (1) 
-55.010770070047343

>  <r_i_glide_emodel_strain>  (1) 
1.0621168211269207

>  <r_i_glide_energy>  (1) 
-47.390210398094275

>  <r_i_glide_erotb>  (1) 
0.58091350073026182

>  <r_i_glide_esite>  (1) 
-0.11256687476975583

>  <r_i_glide_evdw>  (1) 
-39.218830878907262

>  <r_i_glide_gscore>  (1) 
-5.8457610721732429

>  <r_i_glide_gscore_strain>  (1) 
0

>  <r_i_glide_hbond>  (1) 
-0.20000000000000001

>  <r_i_glide_ligand_efficiency>  (1) 
-0.17334586237404159

>  <r_i_glide_ligand_efficiency_ln>  (1) 
-1.2721903344198384

>  <r_i_glide_ligand_efficiency_sa>  (1) 
-0.55601280452747026

>  <r_i_glide_lipo>  (1) 
-1.0090343094527641

>  <r_i_glide_metal>  (1) 
-0

>  <r_i_glide_rewards>  (1) 
-1.9184249168575689

>  <r_lp_Energy>  (1) 
70.574212000000003

>  <r_lp_tautomer_probability>  (1) 
0.94542902837213583

>  <s_epik_Chemistry_Notes>  (1) 
This compound has an imine and may undergo hydrolysis. This compound contains an acetal/aminal-like group ( X-CH(R)-Y where X, Y are N, S, or O) that may be acid/base labile, releasing an aldehyde.

>  <s_epik_cmdline>  (1) 
J2VwaWtfcHl0aG9uJywgJy1waHQnLCAnMS4wJywgJy1waCcsICc3LjQnLCAnLXRuJywgJzgnLCAnLW1hJywgJzUwMCcsICctaW1hZScsICc8aW5maWxlLm1hZT4nLCAnLW9tYWUnLCAnPG91dGZpbGUubWFlPic=

>  <s_epik_input>  (1) 
W0NIMl0xW0NAQEhdMltDQEhdKEMxMjMpW0NIXT1DNEMoPUMzRilbQ0hdPU5OKEMoPU8pW05IXTQpW0NAXTUoT1tDQEBIXTVbQ0gzXSlbQ0gyXVtOSF1bQ0gyXVtDSDJdTihbQ0gyXVtOSF02KVtDQEBIXShbQ0gzXSlbQ0BIXShDNjcpTj1bQ0hdTj03

>  <s_glide_docking_method>  (1) 
confgen

>  <s_i_glide_gridfile>  (1) 
gpcr_drd2_6luq_protein_autoprepared_prepared

>  <s_lp_Force_Field>  (1) 
S-OPLS

>  <s_lp_Variant>  (1) 
DiffSBDD_47_num_sample_100-1

>  <s_m_source_file>  (1) 
generated__ligand_DiffSBDD_2026-05-06_prepared.sdf

>  <GenAI_Model>  (1) 
DiffSBDD

>  <Protein>  (1) 
generic_title2

$$$$
DiffSBDD_72_num_sample_100
     RDKit          3D

  0  0  0  0  0  0  0  0  0  0999 V3000
M  V30 BEGIN CTAB
M  V30 COUNTS 32 34 0 0 1
M  V30 BEGIN ATOM
M  V30 1 C 10.272398 6.557365 -7.481781 0
M  V30 2 C 7.234779 5.904003 -12.740059 0
M  V30 3 C 10.211819 7.217757 -10.221435 0
M  V30 4 C 9.457984 5.820175 -8.364005 0
M  V30 5 C 8.523000 5.366863 -10.685004 0 CFG=2
M  V30 6 C 9.294699 4.372572 -11.599125 0
M  V30 7 N 7.692457 6.246928 -11.491669 0
M  V30 8 C 11.055153 7.622846 -7.967937 0
M  V30 9 C 6.349518 6.847534 -13.443832 0
M  V30 10 C 9.424041 6.149768 -9.735440 0
M  V30 11 F 11.834827 8.332356 -7.118253 0
M  V30 12 C 11.026782 7.951454 -9.337287 0
M  V30 13 C 8.419461 3.737081 -12.719264 0
M  V30 14 C 6.128128 5.946047 -14.746101 0
M  V30 15 C 6.941941 4.568498 -14.668754 0
M  V30 16 C 7.527928 4.794757 -13.331311 0
M  V30 17 H 10.294246 6.306661 -6.431167 0
M  V30 18 H 10.185285 7.475146 -11.270046 0
M  V30 19 H 8.854325 5.007494 -7.987845 0
M  V30 20 H 7.827319 4.787494 -10.076367 0
M  V30 21 H 10.114213 4.907033 -12.082160 0
M  V30 22 H 9.750505 3.593789 -10.991126 0
M  V30 23 H 5.433383 7.047116 -12.888912 0
M  V30 24 H 11.627187 8.768824 -9.708465 0
M  V30 25 H 9.034839 3.286577 -13.491668 0
M  V30 26 H 7.784855 2.951060 -12.312751 0
M  V30 27 H 6.425827 6.504056 -15.634533 0
M  V30 28 H 5.064431 5.737991 -14.863735 0
M  V30 29 H 6.294422 3.691590 -14.677619 0
M  V30 30 H 7.713691 4.484646 -15.434626 0
M  V30 31 H 6.880359 7.769299 -13.670166 0
M  V30 32 H 7.373069 7.109660 -11.047265 0
M  V30 END ATOM
M  V30 BEGIN BOND
M  V30 1 2 4 1
M  V30 2 1 6 5
M  V30 3 1 7 2
M  V30 4 1 7 5
M  V30 5 1 8 1
M  V30 6 1 9 2
M  V30 7 2 10 3
M  V30 8 1 10 4
M  V30 9 1 10 5
M  V30 10 1 11 8
M  V30 11 1 12 3
M  V30 12 2 12 8
M  V30 13 1 13 6
M  V30 14 1 14 9
M  V30 15 1 15 14
M  V30 16 2 16 2
M  V30 17 1 16 13
M  V30 18 1 16 15
M  V30 19 1 17 1
M  V30 20 1 18 3
M  V30 21 1 19 4
M  V30 22 1 5 20 CFG=1
M  V30 23 1 21 6
M  V30 24 1 22 6
M  V30 25 1 23 9
M  V30 26 1 24 12
M  V30 27 1 25 13
M  V30 28 1 26 13
M  V30 29 1 27 14
M  V30 30 1 28 14
M  V30 31 1 29 15
M  V30 32 1 30 15
M  V30 33 1 31 9
M  V30 34 1 32 7
M  V30 END BOND
M  V30 END CTAB
M  END
>  <i_epik_Tot_Q>  (1) 
0

>  <i_epik_Tot_abs_Q>  (1) 
0

>  <i_i_glide_confnum>  (1) 
2

>  <i_i_glide_lignum>  (1) 
145

>  <i_i_glide_posenum>  (1) 
307

>  <i_i_glide_rotatable_bonds>  (1) 
1

>  <i_lp_mmshare_version>  (1) 
72125

>  <i_m_source_file_index>  (1) 
73

>  <i_f3d_flags>  (1) 
0

>  <num_sample>  (1) 
100

>  <b_lp_Chiralities_Consistent>  (1) 
1

>  <r_epik_Charging_Adjusted_Penalty>  (1) 
0.00012261153731157732

>  <r_epik_Ionization_Penalty>  (1) 
0.00096767274994002245

>  <r_epik_Ionization_Penalty_Charging>  (1) 
0.00012261153731157732

>  <r_epik_Ionization_Penalty_Neutral>  (1) 
0.00084506121262844516

>  <r_epik_State_Penalty>  (1) 
-0

>  <r_glide_ring_energy>  (1) 
0

>  <r_i_docking_score>  (1) 
-5.7118989752094205

>  <r_i_glide_ecoul>  (1) 
-2.9735655729301897

>  <r_i_glide_eff_state_penalty>  (1) 
-0

>  <r_i_glide_einternal>  (1) 
0.26988501512466323

>  <r_i_glide_emodel>  (1) 
-36.646779803200189

>  <r_i_glide_emodel_strain>  (1) 
0

>  <r_i_glide_energy>  (1) 
-27.420873489387724

>  <r_i_glide_erotb>  (1) 
0.35536468767402363

>  <r_i_glide_esite>  (1) 
-0.10000000000000001

>  <r_i_glide_evdw>  (1) 
-24.447307916457532

>  <r_i_glide_gscore>  (1) 
-5.7118989752094205

>  <r_i_glide_gscore_strain>  (1) 
0

>  <r_i_glide_hbond>  (1) 
-0.14006203889664504

>  <r_i_glide_ligand_efficiency>  (1) 
-0.35699368595058878

>  <r_i_glide_ligand_efficiency_ln>  (1) 
-1.5140529211512548

>  <r_i_glide_ligand_efficiency_sa>  (1) 
-0.89956771921741296

>  <r_i_glide_lipo>  (1) 
-1.2439175687146342

>  <r_i_glide_metal>  (1) 
-0

>  <r_i_glide_rewards>  (1) 
-2.9148838235097592

>  <r_lp_Energy>  (1) 
12.315507

>  <r_lp_tautomer_probability>  (1) 
1

>  <s_epik_Chemistry_Notes>  (1) 
This compound has an imine and may undergo hydrolysis.

>  <s_epik_cmdline>  (1) 
J2VwaWtfcHl0aG9uJywgJy1waHQnLCAnMS4wJywgJy1waCcsICc3LjQnLCAnLXRuJywgJzgnLCAnLW1hJywgJzUwMCcsICctaW1hZScsICc8aW5maWxlLm1hZT4nLCAnLW9tYWUnLCAnPG91dGZpbGUubWFlPic=

>  <s_epik_input>  (1) 
RmMxW2NIXVtjSF1jKFtjSF1bY0hdMSlbQ0BIXShOMilbQ0gyXVtDSDJdW0NASF0oQz0yMylbQ0gyXVtDSDJdW0NIMl0z

>  <s_glide_docking_method>  (1) 
confgen

>  <s_i_glide_gridfile>  (1) 
gpcr_drd2_6luq_protein_autoprepared_prepared

>  <s_lp_Force_Field>  (1) 
S-OPLS

>  <s_lp_Variant>  (1) 
DiffSBDD_72_num_sample_100-2

>  <s_m_source_file>  (1) 
generated__ligand_DiffSBDD_2026-05-06_prepared.sdf

>  <GenAI_Model>  (1) 
DiffSBDD

>  <Protein>  (1) 
generic_title2

$$$$
DiffSBDD_34_num_sample_100
     RDKit          3D

  0  0  0  0  0  0  0  0  0  0999 V3000
M  V30 BEGIN CTAB
M  V30 COUNTS 61 64 0 0 1
M  V30 BEGIN ATOM
M  V30 1 N 5.248198 6.853122 -16.580565 0
M  V30 2 C 6.762741 4.461276 -14.100006 0 CFG=1
M  V30 3 C 10.352001 6.907589 -8.519185 0
M  V30 4 C 10.033762 6.413220 -7.242394 0
M  V30 5 C 8.115421 4.600951 -16.426410 0
M  V30 6 C 12.911965 6.796505 -2.465051 0
M  V30 7 C 8.146899 4.529630 -14.859318 0
M  V30 8 C 7.006460 5.550702 -16.695474 0
M  V30 9 C 11.445643 9.214457 -5.018970 0
M  V30 10 N 11.828870 8.538459 -3.891655 0
M  V30 11 C 8.634723 5.784849 -10.171244 0
M  V30 12 C 11.335883 8.890945 -7.514707 0
M  V30 13 C 10.991963 8.151009 -8.653959 0
M  V30 14 C 11.052938 8.391042 -6.228046 0
M  V30 15 O 12.102946 9.364610 -2.772471 0
M  V30 16 C 6.926809 4.473501 -12.567039 0
M  V30 17 C 11.912796 7.096191 -3.573574 0
M  V30 18 C 7.790240 3.229343 -17.039554 0
M  V30 19 C 10.378825 7.149591 -6.096919 0
M  V30 20 C 5.718207 6.965183 -17.821000 0
M  V30 21 C 6.817864 5.918326 -12.021978 0 CFG=2
M  V30 22 O 9.129603 6.616879 -12.390873 0
M  V30 23 C 6.020820 5.978526 -15.857473 0
M  V30 24 O 11.436334 10.442689 -5.090183 0
M  V30 25 S 6.189376 6.969270 -13.356885 0
M  V30 26 C 10.056631 6.085756 -9.744071 0
M  V30 27 C 9.459770 5.118964 -16.974031 0
M  V30 28 C 8.108675 6.516310 -11.415263 0 CFG=2
M  V30 29 N 6.786800 6.173409 -17.900208 0 CHG=1
M  V30 30 C 5.773106 5.610543 -14.446897 0 CFG=2
M  V30 31 O 7.941460 4.969523 -9.559024 0
M  V30 32 H 6.302125 3.515601 -14.387430 0
M  V30 33 H 9.533471 5.460412 -7.140186 0
M  V30 34 H 13.093044 5.726952 -2.357165 0
M  V30 35 H 12.572912 7.160955 -1.497377 0
M  V30 36 H 13.834886 7.295980 -2.720034 0
M  V30 37 H 8.643703 5.437188 -14.525334 0
M  V30 38 H 8.790224 3.727163 -14.520381 0
M  V30 39 H 11.835699 9.840096 -7.624486 0
M  V30 40 H 11.234567 8.531992 -9.635484 0
M  V30 41 H 12.430344 8.761732 -2.123589 0
M  V30 42 H 6.111505 3.893214 -12.132306 0
M  V30 43 H 7.839836 3.965611 -12.253921 0
M  V30 44 H 10.964451 6.673605 -3.254760 0
M  V30 45 H 12.234731 6.537931 -4.450069 0
M  V30 46 H 8.580195 2.508052 -16.830012 0
M  V30 47 H 7.686339 3.295053 -18.123088 0
M  V30 48 H 6.861819 2.818778 -16.642393 0
M  V30 49 H 10.115196 6.766006 -5.131969 0
M  V30 50 H 5.313378 7.578984 -18.607515 0
M  V30 51 H 6.053946 5.929719 -11.241654 0
M  V30 52 H 9.334636 5.744945 -12.693827 0
M  V30 53 H 4.437500 7.344655 -16.224470 0
M  V30 54 H 10.415998 5.098202 -9.491189 0
M  V30 55 H 10.634292 6.523875 -10.561088 0
M  V30 56 H 10.271565 4.435216 -16.724645 0
M  V30 57 H 9.722760 6.090582 -16.555510 0
M  V30 58 H 9.440905 5.216941 -18.059558 0
M  V30 59 H 7.894112 7.533167 -11.093402 0
M  V30 60 H 4.736696 5.318766 -14.284351 0
M  V30 61 H 7.355503 6.052113 -18.730177 0
M  V30 END ATOM
M  V30 BEGIN BOND
M  V30 1 1 4 3
M  V30 2 1 7 2
M  V30 3 1 7 5
M  V30 4 1 8 5
M  V30 5 1 10 9
M  V30 6 2 13 3
M  V30 7 1 13 12
M  V30 8 1 14 9
M  V30 9 2 14 12
M  V30 10 1 15 10
M  V30 11 1 16 2
M  V30 12 1 17 6
M  V30 13 1 17 10
M  V30 14 1 18 5
M  V30 15 2 19 4
M  V30 16 1 19 14
M  V30 17 1 20 1
M  V30 18 1 21 16
M  V30 19 1 23 1
M  V30 20 2 23 8
M  V30 21 2 24 9
M  V30 22 1 25 21
M  V30 23 1 26 3
M  V30 24 1 26 11
M  V30 25 1 27 5
M  V30 26 1 28 11
M  V30 27 1 28 21
M  V30 28 1 28 22
M  V30 29 1 29 8
M  V30 30 2 29 20
M  V30 31 1 30 2
M  V30 32 1 30 23
M  V30 33 1 30 25
M  V30 34 2 31 11
M  V30 35 1 2 32 CFG=1
M  V30 36 1 33 4
M  V30 37 1 34 6
M  V30 38 1 35 6
M  V30 39 1 36 6
M  V30 40 1 37 7
M  V30 41 1 38 7
M  V30 42 1 39 12
M  V30 43 1 40 13
M  V30 44 1 41 15
M  V30 45 1 42 16
M  V30 46 1 43 16
M  V30 47 1 44 17
M  V30 48 1 45 17
M  V30 49 1 46 18
M  V30 50 1 47 18
M  V30 51 1 48 18
M  V30 52 1 49 19
M  V30 53 1 50 20
M  V30 54 1 21 51 CFG=1
M  V30 55 1 52 22
M  V30 56 1 53 1
M  V30 57 1 54 26
M  V30 58 1 55 26
M  V30 59 1 56 27
M  V30 60 1 57 27
M  V30 61 1 58 27
M  V30 62 1 28 59 CFG=1
M  V30 63 1 30 60 CFG=3
M  V30 64 1 61 29
M  V30 END BOND
M  V30 END CTAB
M  END
>  <i_epik_Tot_Q>  (1) 
1

>  <i_epik_Tot_abs_Q>  (1) 
1

>  <i_i_glide_confnum>  (1) 
110

>  <i_i_glide_lignum>  (1) 
60

>  <i_i_glide_posenum>  (1) 
250

>  <i_i_glide_rotatable_bonds>  (1) 
9

>  <i_lp_mmshare_version>  (1) 
72125

>  <i_m_source_file_index>  (1) 
35

>  <i_f3d_flags>  (1) 
0

>  <num_sample>  (1) 
100

>  <b_lp_Chiralities_Consistent>  (1) 
1

>  <r_epik_Charging_Adjusted_Penalty>  (1) 
0.45828602493401616

>  <r_epik_Ionization_Penalty>  (1) 
0.57733411105264909

>  <r_epik_Ionization_Penalty_Charging>  (1) 
0

>  <r_epik_Ionization_Penalty_Neutral>  (1) 
0.57733411105264909

>  <r_epik_State_Penalty>  (1) 
0.45828602493401616

>  <r_glide_ring_energy>  (1) 
0

>  <r_i_docking_score>  (1) 
-5.7114556184881851

>  <r_i_glide_ecoul>  (1) 
-2.8491427431730934

>  <r_i_glide_eff_state_penalty>  (1) 
0.45828602493401616

>  <r_i_glide_einternal>  (1) 
16.649660966255531

>  <r_i_glide_emodel>  (1) 
-46.188148885767731

>  <r_i_glide_emodel_strain>  (1) 
0.65786726772971349

>  <r_i_glide_energy>  (1) 
-39.397012482599465

>  <r_i_glide_erotb>  (1) 
0.60717041942003669

>  <r_i_glide_esite>  (1) 
-0.098966106661938419

>  <r_i_glide_evdw>  (1) 
-36.547869739426368

>  <r_i_glide_gscore>  (1) 
-6.169741643422201

>  <r_i_glide_gscore_strain>  (1) 
0

>  <r_i_glide_hbond>  (1) 
0

>  <r_i_glide_ligand_efficiency>  (1) 
-0.18424050382219953

>  <r_i_glide_ligand_efficiency_ln>  (1) 
-1.2881082770628727

>  <r_i_glide_ligand_efficiency_sa>  (1) 
-0.57876955409390018

>  <r_i_glide_lipo>  (1) 
-2.4495438114036725

>  <r_i_glide_metal>  (1) 
-0

>  <r_i_glide_rewards>  (1) 
-1.9736372463293446

>  <r_lp_Energy>  (1) 
47.808426999999995

>  <r_lp_tautomer_probability>  (1) 
0.99990000499974985

>  <s_epik_Chemistry_Notes>  (1) 
This compound has a N-S or N-O group and may undergo hydrolysis at high or low pH.

>  <s_epik_cmdline>  (1) 
J2VwaWtfcHl0aG9uJywgJy1waHQnLCAnMS4wJywgJy1waCcsICc3LjQnLCAnLXRuJywgJzgnLCAnLW1hJywgJzUwMCcsICctaW1hZScsICc8aW5maWxlLm1hZT4nLCAnLW9tYWUnLCAnPG91dGZpbGUubWFlPic=

>  <s_epik_input>  (1) 
TjE9W0NIXU49QyhDKFtDSDJdMikoW0NIM10pW0NIM10pW0NASF0xW0NAQEhdKFtDQEBIXTIzKVNbQ0BASF0oW0NIMl0zKVtDQEhdKFtPSF0pQyg9TylbQ0gyXWM0W2NIXVtjSF1jKFtjSF1bY0hdNClDKD1PKU4oW09IXSlbQ0gyXVtDSDNd

>  <s_glide_docking_method>  (1) 
confgen

>  <s_i_glide_gridfile>  (1) 
gpcr_drd2_6luq_protein_autoprepared_prepared

>  <s_lp_Force_Field>  (1) 
S-OPLS

>  <s_lp_Variant>  (1) 
DiffSBDD_34_num_sample_100-1

>  <s_m_source_file>  (1) 
generated__ligand_DiffSBDD_2026-05-06_prepared.sdf

>  <GenAI_Model>  (1) 
DiffSBDD

>  <Protein>  (1) 
generic_title2

$$$$
DiffSBDD_16_num_sample_100
     RDKit          3D

  0  0  0  0  0  0  0  0  0  0999 V3000
M  V30 BEGIN CTAB
M  V30 COUNTS 54 57 0 0 1
M  V30 BEGIN ATOM
M  V30 1 C 7.590328 4.010100 -13.667748 0
M  V30 2 C 5.772267 6.954738 -12.031610 0
M  V30 3 C 11.407211 6.517973 -5.327486 0
M  V30 4 C 11.382774 6.443322 -6.732060 0
M  V30 5 C 9.690061 6.837685 -10.843780 0
M  V30 6 C 7.626046 6.135633 -15.541935 0 CFG=1
M  V30 7 C 6.726620 5.769745 -11.977432 0 CFG=1
M  V30 8 C 11.434839 7.764063 -4.691656 0
M  V30 9 C 11.422530 8.872328 -6.861616 0
M  V30 10 C 11.393013 7.623913 -7.502304 0
M  V30 11 C 9.153386 4.969289 -9.133600 0
M  V30 12 C 11.433010 8.941266 -5.455626 0
M  V30 13 C 6.926534 4.811749 -15.823072 0 CFG=1
M  V30 14 C 11.375674 7.546938 -9.018338 0
M  V30 15 C 9.992115 7.789688 -9.655312 0
M  V30 16 N 11.434836 10.169309 -4.821922 0
M  V30 17 C 6.525632 4.673787 -10.954221 0
M  V30 18 C 8.884739 5.533435 -10.542441 0 CFG=1
M  V30 19 C 7.078666 5.820501 -16.912497 0
M  V30 20 O 6.959299 6.328189 -14.307128 0
M  V30 21 C 7.550739 5.529081 -13.259578 0 CFG=2
M  V30 22 C 7.799731 3.778213 -15.177987 0
M  V30 23 N 7.425601 5.769300 -10.691666 0 CFG=1 CHG=1
M  V30 24 H 8.340811 3.467986 -13.091217 0
M  V30 25 H 6.629436 3.557477 -13.419440 0
M  V30 26 H 5.039222 6.822796 -12.826672 0
M  V30 27 H 5.225890 7.065603 -11.093298 0
M  V30 28 H 6.327196 7.874700 -12.211300 0
M  V30 29 H 11.402277 5.615897 -4.738339 0
M  V30 30 H 11.361199 5.480219 -7.217718 0
M  V30 31 H 9.158504 7.418911 -11.597830 0
M  V30 32 H 10.629647 6.570633 -11.329675 0
M  V30 33 H 8.710168 6.169289 -15.452931 0
M  V30 34 H 11.447990 7.818210 -3.613672 0
M  V30 35 H 11.434836 9.773665 -7.447550 0
M  V30 36 H 10.166218 4.584276 -9.036873 0
M  V30 37 H 8.993754 5.696831 -8.340722 0
M  V30 38 H 8.460929 4.169399 -8.898341 0
M  V30 39 H 5.892154 4.717093 -15.491674 0
M  V30 40 H 12.101384 8.252996 -9.425404 0
M  V30 41 H 11.743142 6.569303 -9.298858 0
M  V30 42 H 9.196495 7.746770 -8.912033 0
M  V30 43 H 9.967946 8.822606 -9.999978 0
M  V30 44 H 11.409328 10.242847 -3.815579 0
M  V30 45 H 11.398717 11.032640 -5.344356 0
M  V30 46 H 7.101752 3.769303 -10.997490 0
M  V30 47 H 5.666151 4.707885 -10.291680 0
M  V30 48 H 9.193882 4.769567 -11.256379 0
M  V30 49 H 6.191283 6.365350 -17.228825 0
M  V30 50 H 7.795928 5.611001 -17.703771 0
M  V30 51 H 8.567725 5.897384 -13.143500 0
M  V30 52 H 7.487920 2.776976 -15.475235 0
M  V30 53 H 8.841266 3.906470 -15.475829 0
M  V30 54 H 7.047977 6.495142 -10.068499 0
M  V30 END ATOM
M  V30 BEGIN BOND
M  V30 1 1 4 3
M  V30 2 1 7 2 CFG=3
M  V30 3 2 8 3
M  V30 4 2 10 4
M  V30 5 1 10 9
M  V30 6 1 12 8
M  V30 7 2 12 9
M  V30 8 1 13 6
M  V30 9 1 14 10
M  V30 10 1 15 5
M  V30 11 1 15 14
M  V30 12 1 16 12
M  V30 13 1 17 7
M  V30 14 1 18 5
M  V30 15 1 18 11
M  V30 16 1 19 6
M  V30 17 1 19 13
M  V30 18 1 20 6
M  V30 19 1 21 1
M  V30 20 1 21 7
M  V30 21 1 21 20
M  V30 22 1 22 1
M  V30 23 1 22 13
M  V30 24 1 23 7
M  V30 25 1 23 17
M  V30 26 1 23 18
M  V30 27 1 24 1
M  V30 28 1 25 1
M  V30 29 1 26 2
M  V30 30 1 27 2
M  V30 31 1 28 2
M  V30 32 1 29 3
M  V30 33 1 30 4
M  V30 34 1 31 5
M  V30 35 1 32 5
M  V30 36 1 6 33 CFG=3
M  V30 37 1 34 8
M  V30 38 1 35 9
M  V30 39 1 36 11
M  V30 40 1 37 11
M  V30 41 1 38 11
M  V30 42 1 13 39 CFG=1
M  V30 43 1 40 14
M  V30 44 1 41 14
M  V30 45 1 42 15
M  V30 46 1 43 15
M  V30 47 1 44 16
M  V30 48 1 45 16
M  V30 49 1 46 17
M  V30 50 1 47 17
M  V30 51 1 18 48 CFG=3
M  V30 52 1 49 19
M  V30 53 1 50 19
M  V30 54 1 21 51 CFG=1
M  V30 55 1 52 22
M  V30 56 1 53 22
M  V30 57 1 23 54 CFG=1
M  V30 END BOND
M  V30 END CTAB
M  END
>  <i_epik_Tot_Q>  (1) 
1

>  <i_epik_Tot_abs_Q>  (1) 
1

>  <i_i_glide_confnum>  (1) 
154

>  <i_i_glide_lignum>  (1) 
26

>  <i_i_glide_posenum>  (1) 
81

>  <i_i_glide_rotatable_bonds>  (1) 
6

>  <i_lp_mmshare_version>  (1) 
72125

>  <i_m_source_file_index>  (1) 
17

>  <i_f3d_flags>  (1) 
0

>  <num_sample>  (1) 
100

>  <b_lp_Chiralities_Consistent>  (1) 
1

>  <r_epik_Charging_Adjusted_Penalty>  (1) 
0.11272327168216571

>  <r_epik_Ionization_Penalty>  (1) 
0.057493963086777844

>  <r_epik_Ionization_Penalty_Charging>  (1) 
0.056361635841082856

>  <r_epik_Ionization_Penalty_Neutral>  (1) 
0.0011323272456949893

>  <r_epik_State_Penalty>  (1) 
0.056361635841082856

>  <r_glide_ring_energy>  (1) 
0

>  <r_i_docking_score>  (1) 
-5.7052349741856441

>  <r_i_glide_ecoul>  (1) 
-8.03890510154136

>  <r_i_glide_eff_state_penalty>  (1) 
0.056361635841082856

>  <r_i_glide_einternal>  (1) 
6.4638323345025661

>  <r_i_glide_emodel>  (1) 
-40.62173258382694

>  <r_i_glide_emodel_strain>  (1) 
0.91735145598940449

>  <r_i_glide_energy>  (1) 
-31.51129403572941

>  <r_i_glide_erotb>  (1) 
1.1214719841998091

>  <r_i_glide_esite>  (1) 
-0.10000000000000001

>  <r_i_glide_evdw>  (1) 
-23.47238893418805

>  <r_i_glide_gscore>  (1) 
-5.7615966100267269

>  <r_i_glide_gscore_strain>  (1) 
0

>  <r_i_glide_hbond>  (1) 
-0.18052791800321938

>  <r_i_glide_ligand_efficiency>  (1) 
-0.2480536945298106

>  <r_i_glide_ligand_efficiency_ln>  (1) 
-1.379577548968669

>  <r_i_glide_ligand_efficiency_sa>  (1) 
-0.70543171110351532

>  <r_i_glide_lipo>  (1) 
-2.0650141233736186

>  <r_i_glide_metal>  (1) 
-0

>  <r_i_glide_rewards>  (1) 
-2.1580713409090908

>  <r_lp_Energy>  (1) 
57.573436999999998

>  <s_epik_cmdline>  (1) 
J2VwaWtfcHl0aG9uJywgJy1waHQnLCAnMS4wJywgJy1waCcsICc3LjQnLCAnLXRuJywgJzgnLCAnLW1hJywgJzUwMCcsICctaW1hZScsICc8aW5maWxlLm1hZT4nLCAnLW9tYWUnLCAnPG91dGZpbGUubWFlPic=

>  <s_epik_input>  (1) 
W0NIXTEyW0NIXShbQ0gyXTEpW0NIMl1bQ0gyXVtDQEBIXShPMilbQ0BAXTMoW0NIM10pW0NIMl1OM1tDQEhdKFtDSDNdKVtDSDJdW0NIMl1bQ0gyXWM0W2NIXVtjSF1bY0hdYyhbY0hdNClbTkgyXQ==

>  <s_glide_docking_method>  (1) 
confgen

>  <s_i_glide_gridfile>  (1) 
gpcr_drd2_6luq_protein_autoprepared_prepared

>  <s_lp_Force_Field>  (1) 
S-OPLS

>  <s_lp_Variant>  (1) 
DiffSBDD_16_num_sample_100-1

>  <s_m_source_file>  (1) 
generated__ligand_DiffSBDD_2026-05-06_prepared.sdf

>  <GenAI_Model>  (1) 
DiffSBDD

>  <Protein>  (1) 
generic_title2

$$$$
DiffSBDD_63_num_sample_100
     RDKit          3D

  0  0  0  0  0  0  0  0  0  0999 V3000
M  V30 BEGIN CTAB
M  V30 COUNTS 56 56 0 0 1
M  V30 BEGIN ATOM
M  V30 1 C 5.905125 2.288329 -13.403141 0
M  V30 2 C 10.945183 7.232919 -6.456356 0
M  V30 3 C 12.202236 8.314102 -9.074811 0
M  V30 4 C 8.720278 5.262551 -8.747442 0
M  V30 5 C 6.646281 6.970462 -14.885748 0
M  V30 6 C 10.334259 7.088483 -7.839717 0
M  V30 7 C 11.304729 8.696789 -6.103684 0 CFG=1
M  V30 8 C 5.873545 5.859501 -14.161113 0
M  V30 9 C 6.717960 5.073786 -13.170964 0
M  V30 10 C 7.701081 1.782049 -15.067269 0
M  V30 11 C 13.026131 8.969301 -7.972888 0
M  V30 12 C 6.617745 5.281497 -11.837964 0
M  V30 13 C 7.931017 2.424664 -16.443668 0
M  V30 14 C 5.741807 7.784714 -15.816904 0
M  V30 15 C 10.692151 8.144593 -8.868862 0
M  V30 16 N 8.251582 5.434240 -10.031852 0
M  V30 17 O 11.276163 8.914637 -4.692086 0
M  V30 18 C 7.672947 4.040406 -13.786941 0
M  V30 19 C 7.017110 2.677898 -14.044383 0
M  V30 20 C 12.634795 9.148539 -6.691907 0
M  V30 21 C 7.408219 4.536214 -10.779223 0
M  V30 22 C 12.220825 8.213940 -3.891289 0
M  V30 23 C 9.530212 6.096324 -8.144260 0
M  V30 24 H 5.434840 2.927358 -12.680832 0
M  V30 25 H 5.456698 1.323803 -13.594991 0
M  V30 26 H 10.231156 6.846191 -5.726799 0
M  V30 27 H 11.828326 6.595950 -6.391388 0
M  V30 28 H 12.663874 7.369299 -9.343689 0
M  V30 29 H 12.334386 8.949942 -9.951095 0
M  V30 30 H 8.346530 4.368074 -8.271469 0
M  V30 31 H 7.462592 6.544471 -15.467436 0
M  V30 32 H 7.102559 7.636267 -14.152021 0
M  V30 33 H 10.528444 9.368245 -6.469511 0
M  V30 34 H 5.034964 6.304746 -13.625132 0
M  V30 35 H 5.439466 5.166660 -14.881645 0
M  V30 36 H 7.091498 0.887892 -15.207226 0
M  V30 37 H 8.634851 1.426281 -14.642859 0
M  V30 38 H 14.004470 9.321524 -8.269368 0
M  V30 39 H 5.925899 6.027942 -11.472154 0
M  V30 40 H 8.266659 1.676385 -17.162028 0
M  V30 41 H 8.696351 3.199516 -16.412056 0
M  V30 42 H 7.016160 2.868160 -16.835309 0
M  V30 43 H 6.297357 8.591939 -16.291683 0
M  V30 44 H 4.915390 8.234985 -15.267577 0
M  V30 45 H 5.319288 7.158783 -16.603464 0
M  V30 46 H 10.208757 9.085868 -8.627002 0
M  V30 47 H 10.256800 7.859583 -9.829042 0
M  V30 48 H 7.959062 6.402609 -10.159219 0
M  V30 49 H 8.030938 4.460807 -14.723051 0
M  V30 50 H 8.573601 3.899396 -13.191991 0
M  V30 51 H 13.310358 9.641724 -6.009270 0
M  V30 52 H 8.043594 3.769299 -11.204491 0
M  V30 53 H 6.705526 4.048438 -10.102769 0
M  V30 54 H 11.990957 8.392708 -2.840571 0
M  V30 55 H 13.236726 8.569331 -4.058952 0
M  V30 56 H 12.184945 7.137075 -4.054614 0
M  V30 END ATOM
M  V30 BEGIN BOND
M  V30 1 1 6 2
M  V30 2 1 7 2
M  V30 3 1 8 5
M  V30 4 1 9 8
M  V30 5 1 11 3
M  V30 6 2 12 9
M  V30 7 1 13 10
M  V30 8 1 14 5
M  V30 9 1 15 3
M  V30 10 1 15 6
M  V30 11 1 16 4
M  V30 12 1 17 7
M  V30 13 1 18 9
M  V30 14 2 19 1
M  V30 15 1 19 10
M  V30 16 1 19 18
M  V30 17 1 20 7
M  V30 18 2 20 11
M  V30 19 1 21 12
M  V30 20 1 21 16
M  V30 21 1 22 17
M  V30 22 2 23 4
M  V30 23 2 23 6
M  V30 24 1 24 1
M  V30 25 1 25 1
M  V30 26 1 26 2
M  V30 27 1 27 2
M  V30 28 1 28 3
M  V30 29 1 29 3
M  V30 30 1 30 4
M  V30 31 1 31 5
M  V30 32 1 32 5
M  V30 33 1 7 33 CFG=3
M  V30 34 1 34 8
M  V30 35 1 35 8
M  V30 36 1 36 10
M  V30 37 1 37 10
M  V30 38 1 38 11
M  V30 39 1 39 12
M  V30 40 1 40 13
M  V30 41 1 41 13
M  V30 42 1 42 13
M  V30 43 1 43 14
M  V30 44 1 44 14
M  V30 45 1 45 14
M  V30 46 1 46 15
M  V30 47 1 47 15
M  V30 48 1 48 16
M  V30 49 1 49 18
M  V30 50 1 50 18
M  V30 51 1 51 20
M  V30 52 1 52 21
M  V30 53 1 53 21
M  V30 54 1 54 22
M  V30 55 1 55 22
M  V30 56 1 56 22
M  V30 END BOND
M  V30 END CTAB
M  END
>  <i_epik_Tot_Q>  (1) 
0

>  <i_epik_Tot_abs_Q>  (1) 
0

>  <i_i_glide_confnum>  (1) 
189

>  <i_i_glide_lignum>  (1) 
126

>  <i_i_glide_posenum>  (1) 
193

>  <i_i_glide_rotatable_bonds>  (1) 
9

>  <i_lp_mmshare_version>  (1) 
72125

>  <i_m_source_file_index>  (1) 
64

>  <i_f3d_flags>  (1) 
0

>  <num_sample>  (1) 
100

>  <b_lp_Chiralities_Consistent>  (1) 
1

>  <r_epik_Charging_Adjusted_Penalty>  (1) 
0

>  <r_epik_Ionization_Penalty>  (1) 
2.3151810028890752e-06

>  <r_epik_Ionization_Penalty_Charging>  (1) 
0

>  <r_epik_Ionization_Penalty_Neutral>  (1) 
2.3151810028890752e-06

>  <r_epik_State_Penalty>  (1) 
-0

>  <r_glide_ring_energy>  (1) 
0

>  <r_i_docking_score>  (1) 
-5.7014106422084616

>  <r_i_glide_ecoul>  (1) 
-2.9255366120865327

>  <r_i_glide_eff_state_penalty>  (1) 
-0

>  <r_i_glide_einternal>  (1) 
6.7211299207318813

>  <r_i_glide_emodel>  (1) 
-37.126077265228204

>  <r_i_glide_emodel_strain>  (1) 
2.3916899631964661

>  <r_i_glide_energy>  (1) 
-31.882801220075375

>  <r_i_glide_erotb>  (1) 
1.3082352225513891

>  <r_i_glide_esite>  (1) 
-0.10000000000000001

>  <r_i_glide_evdw>  (1) 
-28.957264607988844

>  <r_i_glide_gscore>  (1) 
-5.7014106422084616

>  <r_i_glide_gscore_strain>  (1) 
0

>  <r_i_glide_hbond>  (1) 
-0.14237661706650306

>  <r_i_glide_ligand_efficiency>  (1) 
-0.24788741922645485

>  <r_i_glide_ligand_efficiency_ln>  (1) 
-1.3786527908194612

>  <r_i_glide_ligand_efficiency_sa>  (1) 
-0.70495884625873706

>  <r_i_glide_lipo>  (1) 
-2.8282554598524232

>  <r_i_glide_metal>  (1) 
-0

>  <r_i_glide_rewards>  (1) 
-2.0523200656285017

>  <r_lp_Energy>  (1) 
-11.675697

>  <r_lp_tautomer_probability>  (1) 
1

>  <s_epik_cmdline>  (1) 
J2VwaWtfcHl0aG9uJywgJy1waHQnLCAnMS4wJywgJy1waCcsICc3LjQnLCAnLXRuJywgJzgnLCAnLW1hJywgJzUwMCcsICctaW1hZScsICc8aW5maWxlLm1hZT4nLCAnLW9tYWUnLCAnPG91dGZpbGUubWFlPic=

>  <s_epik_input>  (1) 
W0NIM11bQ0gyXUMoPVtDSDJdKVtDSDJdQyhcW0NIMl1bQ0gyXVtDSDNdKT1bQ0hdL1tDSDJdW05IXVtDSF09Qz1DMVtDSDJdW0NAQEhdKE9bQ0gzXSlbQ0hdPVtDSF1bQ0gyXVtDSDJdMQ==

>  <s_glide_docking_method>  (1) 
confgen

>  <s_i_glide_gridfile>  (1) 
gpcr_drd2_6luq_protein_autoprepared_prepared

>  <s_lp_Force_Field>  (1) 
S-OPLS

>  <s_lp_Variant>  (1) 
DiffSBDD_63_num_sample_100-2

>  <s_m_source_file>  (1) 
generated__ligand_DiffSBDD_2026-05-06_prepared.sdf

>  <GenAI_Model>  (1) 
DiffSBDD

>  <Protein>  (1) 
generic_title2

$$$$
DiffSBDD_44_num_sample_100
     RDKit          3D

  0  0  0  0  0  0  0  0  0  0999 V3000
M  V30 BEGIN CTAB
M  V30 COUNTS 55 57 0 0 1
M  V30 BEGIN ATOM
M  V30 1 C 5.420047 5.513394 -13.835702 0
M  V30 2 C 6.763245 5.691103 -14.571366 0 CFG=1
M  V30 3 C 12.068057 8.969372 -5.051497 0
M  V30 4 C 11.925744 7.083209 -2.963615 0
M  V30 5 C 11.367680 6.776644 -4.219964 0
M  V30 6 C 9.159764 7.319771 -11.046615 0
M  V30 7 C 7.223092 4.363938 -15.153320 0
M  V30 8 N 6.645254 6.502602 -15.804991 0
M  V30 9 C 9.794264 8.169164 -9.929245 0
M  V30 10 C 11.149004 7.971785 -7.736584 0
M  V30 11 O 11.834826 8.978816 -7.871286 0
M  V30 12 C 12.560959 8.311325 -2.757514 0
M  V30 13 N 11.850618 6.169302 -1.926852 0
M  V30 14 C 7.434885 4.365771 -16.638654 0
M  V30 15 N 10.882075 7.357045 -6.578457 0
M  V30 16 C 8.400887 8.158295 -12.087685 0
M  V30 17 O 8.943965 5.769298 -13.518724 0
M  V30 18 C 9.634580 6.241126 -8.198959 0
M  V30 19 C 6.635020 5.632065 -16.992039 0
M  V30 20 N 7.488230 7.416124 -12.966172 0
M  V30 21 C 5.699064 7.610625 -15.895775 0
M  V30 22 C 10.531047 7.278569 -8.930084 0 CFG=1
M  V30 23 C 10.097767 6.169321 -6.724362 0
M  V30 24 C 11.434840 7.717346 -5.279411 0
M  V30 25 C 7.834838 6.296125 -13.627859 0
M  V30 26 C 12.634829 9.245735 -3.795374 0
M  V30 27 O 7.395092 3.357405 -14.464220 0
M  V30 28 H 5.426644 4.651139 -13.166890 0
M  V30 29 H 5.136295 6.380781 -13.240559 0
M  V30 30 H 4.629402 5.369301 -14.556894 0
M  V30 31 H 12.135962 9.709820 -5.823631 0
M  V30 32 H 10.892415 5.819175 -4.370085 0
M  V30 33 H 9.957296 6.753979 -11.525978 0
M  V30 34 H 8.479470 6.580888 -10.623346 0
M  V30 35 H 9.034852 8.761821 -9.417334 0
M  V30 36 H 10.510388 8.872615 -10.347901 0
M  V30 37 H 12.996119 8.540887 -1.795299 0
M  V30 38 H 12.376679 6.307399 -1.077893 0
M  V30 39 H 11.506380 5.228359 -2.089946 0
M  V30 40 H 8.496137 4.478737 -16.859313 0
M  V30 41 H 7.045856 3.468308 -17.119836 0
M  V30 42 H 7.793625 8.899913 -11.567493 0
M  V30 43 H 9.112443 8.717585 -12.691651 0
M  V30 44 H 8.596729 6.569190 -8.221604 0
M  V30 45 H 9.671388 5.262680 -8.679438 0
M  V30 46 H 7.064884 6.151415 -17.849746 0
M  V30 47 H 5.608745 5.369304 -17.251800 0
M  V30 48 H 6.560920 7.789201 -13.098472 0
M  V30 49 H 5.851300 8.159352 -16.825642 0
M  V30 50 H 4.664166 7.269407 -15.891616 0
M  V30 51 H 5.842072 8.322223 -15.091631 0
M  V30 52 H 11.346671 6.766494 -9.438157 0
M  V30 53 H 10.810462 5.369301 -6.601856 0
M  V30 54 H 9.269638 6.105298 -6.017014 0
M  V30 55 H 13.132439 10.169301 -3.628703 0
M  V30 END ATOM
M  V30 BEGIN BOND
M  V30 1 1 2 1 CFG=1
M  V30 2 2 5 4
M  V30 3 1 7 2
M  V30 4 1 8 2
M  V30 5 1 9 6
M  V30 6 2 11 10
M  V30 7 1 12 4
M  V30 8 1 13 4
M  V30 9 1 14 7
M  V30 10 1 15 10
M  V30 11 1 16 6
M  V30 12 1 19 8
M  V30 13 1 19 14
M  V30 14 1 20 16
M  V30 15 1 21 8
M  V30 16 1 22 9
M  V30 17 1 22 10
M  V30 18 1 22 18
M  V30 19 1 23 15
M  V30 20 1 23 18
M  V30 21 2 24 3
M  V30 22 1 24 5
M  V30 23 1 24 15
M  V30 24 1 25 2
M  V30 25 2 25 17
M  V30 26 1 25 20
M  V30 27 1 26 3
M  V30 28 2 26 12
M  V30 29 2 27 7
M  V30 30 1 28 1
M  V30 31 1 29 1
M  V30 32 1 30 1
M  V30 33 1 31 3
M  V30 34 1 32 5
M  V30 35 1 33 6
M  V30 36 1 34 6
M  V30 37 1 35 9
M  V30 38 1 36 9
M  V30 39 1 37 12
M  V30 40 1 38 13
M  V30 41 1 39 13
M  V30 42 1 40 14
M  V30 43 1 41 14
M  V30 44 1 42 16
M  V30 45 1 43 16
M  V30 46 1 44 18
M  V30 47 1 45 18
M  V30 48 1 46 19
M  V30 49 1 47 19
M  V30 50 1 48 20
M  V30 51 1 49 21
M  V30 52 1 50 21
M  V30 53 1 51 21
M  V30 54 1 22 52 CFG=3
M  V30 55 1 53 23
M  V30 56 1 54 23
M  V30 57 1 55 26
M  V30 END BOND
M  V30 END CTAB
M  END
>  <i_epik_Tot_Q>  (1) 
0

>  <i_epik_Tot_abs_Q>  (1) 
0

>  <i_i_glide_confnum>  (1) 
92

>  <i_i_glide_lignum>  (1) 
76

>  <i_i_glide_posenum>  (1) 
158

>  <i_i_glide_rotatable_bonds>  (1) 
7

>  <i_lp_mmshare_version>  (1) 
72125

>  <i_m_source_file_index>  (1) 
45

>  <i_f3d_flags>  (1) 
0

>  <num_sample>  (1) 
100

>  <b_lp_Chiralities_Consistent>  (1) 
1

>  <r_epik_Charging_Adjusted_Penalty>  (1) 
0.38370982414574223

>  <r_epik_Ionization_Penalty>  (1) 
0.3841777034394574

>  <r_epik_Ionization_Penalty_Charging>  (1) 
0

>  <r_epik_Ionization_Penalty_Neutral>  (1) 
0.3841777034394574

>  <r_epik_State_Penalty>  (1) 
0.38370982414574223

>  <r_glide_ring_energy>  (1) 
0

>  <r_i_docking_score>  (1) 
-5.6995416292115131

>  <r_i_glide_ecoul>  (1) 
-2.0825061182460245

>  <r_i_glide_eff_state_penalty>  (1) 
0.38370982414574223

>  <r_i_glide_einternal>  (1) 
8.6220466910771201

>  <r_i_glide_emodel>  (1) 
-44.939372227320675

>  <r_i_glide_emodel_strain>  (1) 
1.5739142125482886

>  <r_i_glide_energy>  (1) 
-37.440500245996013

>  <r_i_glide_erotb>  (1) 
0.97453214498294238

>  <r_i_glide_esite>  (1) 
-0.030865314858651523

>  <r_i_glide_evdw>  (1) 
-35.35799412774999

>  <r_i_glide_gscore>  (1) 
-6.0832514533572555

>  <r_i_glide_gscore_strain>  (1) 
0

>  <r_i_glide_hbond>  (1) 
0

>  <r_i_glide_ligand_efficiency>  (1) 
-0.21109413441524122

>  <r_i_glide_ligand_efficiency_ln>  (1) 
-1.3267593269929747

>  <r_i_glide_ligand_efficiency_sa>  (1) 
-0.63328240324572382

>  <r_i_glide_lipo>  (1) 
-2.60836858940245

>  <r_i_glide_metal>  (1) 
-0

>  <r_i_glide_rewards>  (1) 
-2.3382740699546929

>  <r_lp_Energy>  (1) 
22.834814999999999

>  <r_lp_tautomer_probability>  (1) 
0.99995000000000001

>  <s_epik_cmdline>  (1) 
J2VwaWtfcHl0aG9uJywgJy1waHQnLCAnMS4wJywgJy1waCcsICc3LjQnLCAnLXRuJywgJzgnLCAnLW1hJywgJzUwMCcsICctaW1hZScsICc8aW5maWxlLm1hZT4nLCAnLW9tYWUnLCAnPG91dGZpbGUubWFlPic=

>  <s_epik_input>  (1) 
W0NIM11OMVtDSDJdW0NIMl1DKD1PKVtDQEBdMShbQ0gzXSlDKD1PKVtOSF1bQ0gyXVtDSDJdW0NIMl1bQ0BASF0yW0NIMl1bQ0gyXU4oQzI9TyljKFtjSF1bY0hdW2NIXTMpW2NIXWMzW05IMl0=

>  <s_glide_docking_method>  (1) 
confgen

>  <s_i_glide_gridfile>  (1) 
gpcr_drd2_6luq_protein_autoprepared_prepared

>  <s_lp_Force_Field>  (1) 
S-OPLS

>  <s_lp_Variant>  (1) 
DiffSBDD_44_num_sample_100-1

>  <s_m_source_file>  (1) 
generated__ligand_DiffSBDD_2026-05-06_prepared.sdf

>  <GenAI_Model>  (1) 
DiffSBDD

>  <Protein>  (1) 
generic_title2

$$$$
DiffSBDD_38_num_sample_100
     RDKit          3D

  0  0  0  0  0  0  0  0  0  0999 V3000
M  V30 BEGIN CTAB
M  V30 COUNTS 50 52 0 0 1
M  V30 BEGIN ATOM
M  V30 1 C 8.548913 6.129184 -12.509599 0
M  V30 2 S 8.634933 5.369299 -8.584049 0
M  V30 3 C 11.316969 7.642576 -6.253001 0
M  V30 4 C 9.848101 7.864089 -6.639874 0
M  V30 5 N 7.318356 1.981041 -14.118146 0 CHG=1
M  V30 6 C 12.070646 9.681228 -3.173935 0
M  V30 7 C 6.850513 4.359524 -13.444351 0
M  V30 8 O 11.573594 10.338146 -5.453988 0
M  V30 9 C 12.156619 8.194818 -2.608962 0
M  V30 10 C 7.783321 3.136093 -13.320558 0
M  V30 11 C 8.923459 6.016915 -11.065884 0
M  V30 12 C 9.913135 6.672978 -8.938808 0 CFG=1
M  V30 13 N 11.616706 8.156224 -4.910796 0
M  V30 14 C 9.714015 6.849021 -10.414267 0
M  V30 15 C 8.257588 4.937733 -10.339101 0 CFG=2
M  V30 16 C 11.834839 7.391162 -3.871035 0
M  V30 17 C 6.856785 5.162797 -10.929821 0 CFG=2
M  V30 18 O 11.795471 6.169302 -3.873717 0
M  V30 19 O 5.947637 4.110761 -10.691670 0
M  V30 20 C 7.112617 5.514958 -12.442029 0 CFG=1
M  V30 21 C 11.724925 9.426292 -4.641705 0
M  V30 22 C 6.318171 1.135228 -13.433042 0
M  V30 23 C 9.653584 7.973814 -8.153657 0
M  V30 24 H 9.239142 5.556129 -13.126712 0
M  V30 25 H 8.545816 7.167594 -12.843626 0
M  V30 26 H 11.566971 6.583960 -6.352974 0
M  V30 27 H 11.966880 8.156653 -6.964260 0
M  V30 28 H 9.474616 8.792125 -6.207615 0
M  V30 29 H 9.222769 7.073095 -6.224260 0
M  V30 30 H 6.941447 2.309921 -14.995430 0
M  V30 31 H 13.034842 10.169290 -3.092375 0
M  V30 32 H 11.301948 10.278803 -2.689181 0
M  V30 33 H 5.813264 4.042271 -13.327870 0
M  V30 34 H 6.921751 4.753187 -14.459049 0
M  V30 35 H 13.156421 7.955661 -2.248805 0
M  V30 36 H 11.434235 8.003203 -1.816206 0
M  V30 37 H 8.778494 3.409080 -13.663320 0
M  V30 38 H 7.897091 2.812590 -12.291663 0
M  V30 39 H 10.912435 6.283309 -8.750156 0
M  V30 40 H 10.196252 7.679530 -10.908078 0
M  V30 41 H 8.710864 3.990902 -10.625687 0
M  V30 42 H 6.405011 6.039483 -10.470114 0
M  V30 43 H 5.691287 4.169305 -9.775936 0
M  V30 44 H 6.402713 6.302026 -12.701414 0
M  V30 45 H 6.004925 0.313771 -14.079022 0
M  V30 46 H 6.732584 0.705646 -12.519947 0
M  V30 47 H 5.434888 1.712540 -13.165742 0
M  V30 48 H 10.289051 8.769021 -8.545638 0
M  V30 49 H 8.634855 8.322124 -8.295005 0
M  V30 50 H 8.117157 1.394869 -14.314643 0
M  V30 END ATOM
M  V30 BEGIN BOND
M  V30 1 1 4 3
M  V30 2 1 9 6
M  V30 3 1 10 5
M  V30 4 1 10 7
M  V30 5 1 11 1
M  V30 6 1 12 2
M  V30 7 1 13 3
M  V30 8 2 14 11
M  V30 9 1 14 12
M  V30 10 1 15 2
M  V30 11 1 15 11
M  V30 12 1 16 9
M  V30 13 1 16 13
M  V30 14 1 17 15
M  V30 15 2 18 16
M  V30 16 1 19 17
M  V30 17 1 20 1
M  V30 18 1 20 7
M  V30 19 1 20 17
M  V30 20 1 21 6
M  V30 21 2 21 8
M  V30 22 1 21 13
M  V30 23 1 22 5
M  V30 24 1 23 4
M  V30 25 1 23 12
M  V30 26 1 24 1
M  V30 27 1 25 1
M  V30 28 1 26 3
M  V30 29 1 27 3
M  V30 30 1 28 4
M  V30 31 1 29 4
M  V30 32 1 30 5
M  V30 33 1 31 6
M  V30 34 1 32 6
M  V30 35 1 33 7
M  V30 36 1 34 7
M  V30 37 1 35 9
M  V30 38 1 36 9
M  V30 39 1 37 10
M  V30 40 1 38 10
M  V30 41 1 12 39 CFG=3
M  V30 42 1 40 14
M  V30 43 1 15 41 CFG=3
M  V30 44 1 17 42 CFG=1
M  V30 45 1 43 19
M  V30 46 1 20 44 CFG=3
M  V30 47 1 45 22
M  V30 48 1 46 22
M  V30 49 1 47 22
M  V30 50 1 48 23
M  V30 51 1 49 23
M  V30 52 1 50 5
M  V30 END BOND
M  V30 END CTAB
M  END
>  <i_epik_Tot_Q>  (1) 
1

>  <i_epik_Tot_abs_Q>  (1) 
1

>  <i_i_glide_confnum>  (1) 
256

>  <i_i_glide_lignum>  (1) 
68

>  <i_i_glide_posenum>  (1) 
80

>  <i_i_glide_rotatable_bonds>  (1) 
8

>  <i_lp_mmshare_version>  (1) 
72125

>  <i_m_source_file_index>  (1) 
39

>  <i_f3d_flags>  (1) 
0

>  <num_sample>  (1) 
100

>  <b_lp_Chiralities_Consistent>  (1) 
1

>  <r_epik_Charging_Adjusted_Penalty>  (1) 
0.00073389509714513615

>  <r_epik_Ionization_Penalty>  (1) 
0.00073402386584221085

>  <r_epik_Ionization_Penalty_Charging>  (1) 
0.00073389509714513615

>  <r_epik_Ionization_Penalty_Neutral>  (1) 
1.2876869707468429e-07

>  <r_epik_State_Penalty>  (1) 
-0

>  <r_glide_ring_energy>  (1) 
0

>  <r_i_docking_score>  (1) 
-5.6981254939743273

>  <r_i_glide_ecoul>  (1) 
-3.5606614268300416

>  <r_i_glide_eff_state_penalty>  (1) 
-0

>  <r_i_glide_einternal>  (1) 
7.4478904302527571

>  <r_i_glide_emodel>  (1) 
-47.482979593399094

>  <r_i_glide_emodel_strain>  (1) 
0.51722459957230171

>  <r_i_glide_energy>  (1) 
-36.79422921563544

>  <r_i_glide_erotb>  (1) 
0.82107344862339093

>  <r_i_glide_esite>  (1) 
0

>  <r_i_glide_evdw>  (1) 
-33.233567788805395

>  <r_i_glide_gscore>  (1) 
-5.6981254939743273

>  <r_i_glide_gscore_strain>  (1) 
0

>  <r_i_glide_hbond>  (1) 
-0.32000000000000001

>  <r_i_glide_ligand_efficiency>  (1) 
-0.24774458669453597

>  <r_i_glide_ligand_efficiency_ln>  (1) 
-1.3778584121883704

>  <r_i_glide_ligand_efficiency_sa>  (1) 
-0.70455264953756436

>  <r_i_glide_lipo>  (1) 
-1.3503588150559214

>  <r_i_glide_metal>  (1) 
-0

>  <r_i_glide_rewards>  (1) 
-2.6530625240770211

>  <r_lp_Energy>  (1) 
9.7708929999999992

>  <r_lp_tautomer_probability>  (1) 
1

>  <s_epik_cmdline>  (1) 
J2VwaWtfcHl0aG9uJywgJy1waHQnLCAnMS4wJywgJy1waCcsICc3LjQnLCAnLXRuJywgJzgnLCAnLW1hJywgJzUwMCcsICctaW1hZScsICc8aW5maWxlLm1hZT4nLCAnLW9tYWUnLCAnPG91dGZpbGUubWFlPic=

>  <s_epik_input>  (1) 
W0NIM11bTkhdW0NIMl1bQ0gyXVtDQEhdKFtDSDJdMSlbQ0BASF0oW09IXSlbQ0BASF0oQzE9MilTW0NAQEhdKFtDSF0yKVtDSDJdW0NIMl1bQ0gyXU4zQyg9TylbQ0gyXVtDSDJdQzM9Tw==

>  <s_glide_docking_method>  (1) 
confgen

>  <s_i_glide_gridfile>  (1) 
gpcr_drd2_6luq_protein_autoprepared_prepared

>  <s_lp_Force_Field>  (1) 
S-OPLS

>  <s_lp_Variant>  (1) 
DiffSBDD_38_num_sample_100-1

>  <s_m_source_file>  (1) 
generated__ligand_DiffSBDD_2026-05-06_prepared.sdf

>  <GenAI_Model>  (1) 
DiffSBDD

>  <Protein>  (1) 
generic_title2

$$$$
DiffSBDD_75_num_sample_100
     RDKit          3D

  0  0  0  0  0  0  0  0  0  0999 V3000
M  V30 BEGIN CTAB
M  V30 COUNTS 76 81 0 0 1
M  V30 BEGIN ATOM
M  V30 1 C 7.435484 2.667147 -14.083161 0
M  V30 2 C 7.740608 3.141282 -15.510691 0
M  V30 3 C 11.955120 5.110315 -17.155348 0
M  V30 4 C 16.437536 6.572229 -18.765145 0 CFG=2
M  V30 5 F 5.644290 6.839784 -18.925064 0
M  V30 6 C 6.410692 3.473965 -13.278619 0
M  V30 7 C 6.677661 5.384830 -14.943286 0 CFG=1
M  V30 8 N 8.163731 5.090301 -17.016327 0
M  V30 9 O 13.824887 1.618809 -18.437581 0 CHG=-1
M  V30 10 C 6.584421 5.003653 -13.426076 0 CFG=2
M  V30 11 C 9.373415 6.429323 -10.225452 0 CFG=1
M  V30 12 N 14.452450 2.656631 -18.628117 0 CHG=1
M  V30 13 C 14.342406 7.753722 -18.061299 0
M  V30 14 O 15.561116 2.708793 -19.150191 0
M  V30 15 C 6.483390 6.876265 -15.292707 0
M  V30 16 C 13.810907 3.934203 -18.185086 0
M  V30 17 C 9.036357 7.181372 -11.498253 0 CFG=1
M  V30 18 C 15.527494 7.775485 -19.020166 0
M  V30 19 C 9.792559 5.885492 -11.571115 0 CFG=2
M  V30 20 C 9.430414 5.300741 -17.478838 0
M  V30 21 N 15.716393 5.319477 -18.967612 0
M  V30 22 C 5.738044 7.109478 -16.622758 0
M  V30 23 N 7.622523 5.533672 -12.475746 0 CFG=2 CHG=1
M  V30 24 C 7.775190 7.000026 -12.309827 0
M  V30 25 C 10.331454 6.975491 -9.191847 0
M  V30 26 O 7.989002 1.681470 -13.604553 0
M  V30 27 C 7.012677 5.254123 -17.906119 0
M  V30 28 O 8.254421 5.769313 -9.668699 0
M  V30 29 C 6.488458 6.695284 -17.904211 0 CFG=1
M  V30 30 O 9.660770 5.637890 -18.641402 0
M  V30 31 O 18.234822 5.769156 -17.363675 0
M  V30 32 C 8.951756 4.874601 -12.309747 0
M  V30 33 C 13.748541 6.365283 -17.898631 0
M  V30 34 C 12.543113 3.903086 -17.572502 0
M  V30 35 N 12.538991 6.318715 -17.303172 0
M  V30 36 C 10.597369 5.107261 -16.485773 0
M  V30 37 C 17.103778 6.608725 -17.374187 0
M  V30 38 C 14.444215 5.208114 -18.357588 0
M  V30 39 C 7.879050 4.681520 -15.619464 0 CFG=2
M  V30 40 H 6.931920 2.793233 -16.153106 0
M  V30 41 H 8.642070 2.644975 -15.866724 0
M  V30 42 H 17.224190 6.611375 -19.520327 0
M  V30 43 H 5.423789 3.185628 -13.633006 0
M  V30 44 H 6.453272 3.178285 -12.230075 0
M  V30 45 H 5.790727 4.922118 -15.364939 0
M  V30 46 H 5.651911 5.439874 -13.063692 0
M  V30 47 H 13.571710 8.445843 -18.403785 0
M  V30 48 H 14.650644 8.101846 -17.077667 0
M  V30 49 H 7.434614 7.394886 -15.301084 0
M  V30 50 H 5.887179 7.348745 -14.511228 0
M  V30 51 H 9.577279 8.110528 -11.668861 0
M  V30 52 H 16.072423 8.716586 -18.937053 0
M  V30 53 H 15.156884 7.722721 -20.044636 0
M  V30 54 H 10.829683 5.962836 -11.891660 0
M  V30 55 H 16.250053 4.476732 -19.151357 0
M  V30 56 H 5.490087 8.169074 -16.700569 0
M  V30 57 H 4.777960 6.592891 -16.588952 0
M  V30 58 H 7.937290 7.510689 -13.251184 0
M  V30 59 H 6.913637 7.446658 -11.813390 0
M  V30 60 H 11.185978 7.452054 -9.672206 0
M  V30 61 H 9.825129 7.715093 -8.570218 0
M  V30 62 H 10.693468 6.170440 -8.552174 0
M  V30 63 H 7.274594 4.963706 -18.925329 0
M  V30 64 H 6.234839 4.567560 -17.619478 0
M  V30 65 H 7.631884 6.462661 -9.418696 0
M  V30 66 H 7.314639 7.369244 -18.114859 0
M  V30 67 H 18.840425 6.075364 -18.022217 0
M  V30 68 H 8.863367 3.962729 -11.717012 0
M  V30 69 H 9.476039 4.614746 -13.221387 0
M  V30 70 H 12.028671 2.964815 -17.422308 0
M  V30 71 H 10.499119 4.169097 -15.946055 0
M  V30 72 H 10.585599 5.907973 -15.748397 0
M  V30 73 H 16.417338 6.299803 -16.585425 0
M  V30 74 H 17.440541 7.618463 -17.137185 0
M  V30 75 H 8.700632 5.017825 -15.014840 0
M  V30 76 H 7.223519 5.306079 -11.572065 0
M  V30 END ATOM
M  V30 BEGIN BOND
M  V30 1 1 2 1
M  V30 2 1 6 1
M  V30 3 1 10 6
M  V30 4 1 10 7
M  V30 5 1 12 9
M  V30 6 2 14 12
M  V30 7 1 15 7
M  V30 8 1 16 12
M  V30 9 1 17 11
M  V30 10 1 18 4
M  V30 11 1 18 13
M  V30 12 1 19 11
M  V30 13 1 19 17
M  V30 14 1 20 8
M  V30 15 1 21 4
M  V30 16 1 22 15
M  V30 17 1 23 10
M  V30 18 1 24 17
M  V30 19 1 24 23
M  V30 20 1 25 11
M  V30 21 2 26 1
M  V30 22 1 27 8
M  V30 23 1 11 28 CFG=1
M  V30 24 1 29 5
M  V30 25 1 29 22
M  V30 26 1 29 27
M  V30 27 2 30 20
M  V30 28 1 32 19
M  V30 29 1 32 23
M  V30 30 1 33 13
M  V30 31 2 34 3
M  V30 32 1 34 16
M  V30 33 1 35 3
M  V30 34 2 35 33
M  V30 35 1 36 3
M  V30 36 1 36 20
M  V30 37 1 37 4
M  V30 38 1 37 31
M  V30 39 2 38 16
M  V30 40 1 38 21
M  V30 41 1 38 33
M  V30 42 1 39 2
M  V30 43 1 39 7
M  V30 44 1 39 8
M  V30 45 1 40 2
M  V30 46 1 41 2
M  V30 47 1 4 42 CFG=3
M  V30 48 1 43 6
M  V30 49 1 44 6
M  V30 50 1 7 45 CFG=3
M  V30 51 1 10 46 CFG=1
M  V30 52 1 47 13
M  V30 53 1 48 13
M  V30 54 1 49 15
M  V30 55 1 50 15
M  V30 56 1 17 51 CFG=1
M  V30 57 1 52 18
M  V30 58 1 53 18
M  V30 59 1 19 54 CFG=1
M  V30 60 1 55 21
M  V30 61 1 56 22
M  V30 62 1 57 22
M  V30 63 1 58 24
M  V30 64 1 59 24
M  V30 65 1 60 25
M  V30 66 1 61 25
M  V30 67 1 62 25
M  V30 68 1 63 27
M  V30 69 1 64 27
M  V30 70 1 65 28
M  V30 71 1 29 66 CFG=3
M  V30 72 1 67 31
M  V30 73 1 68 32
M  V30 74 1 69 32
M  V30 75 1 70 34
M  V30 76 1 71 36
M  V30 77 1 72 36
M  V30 78 1 73 37
M  V30 79 1 74 37
M  V30 80 1 39 75 CFG=1
M  V30 81 1 23 76 CFG=1
M  V30 END BOND
M  V30 END CTAB
M  END
>  <i_epik_Tot_Q>  (1) 
1

>  <i_epik_Tot_abs_Q>  (1) 
3

>  <i_i_glide_confnum>  (1) 
92

>  <i_i_glide_lignum>  (1) 
150

>  <i_i_glide_posenum>  (1) 
386

>  <i_i_glide_rotatable_bonds>  (1) 
8

>  <i_lp_mmshare_version>  (1) 
72125

>  <i_m_source_file_index>  (1) 
76

>  <i_f3d_flags>  (1) 
0

>  <num_sample>  (1) 
100

>  <b_lp_Chiralities_Consistent>  (1) 
1

>  <r_epik_Charging_Adjusted_Penalty>  (1) 
0.015891369841317948

>  <r_epik_Ionization_Penalty>  (1) 
0.0079711574059170582

>  <r_epik_Ionization_Penalty_Charging>  (1) 
0.0079456849206589655

>  <r_epik_Ionization_Penalty_Neutral>  (1) 
2.5472485258093083e-05

>  <r_epik_State_Penalty>  (1) 
0.0079456849206589828

>  <r_glide_ring_energy>  (1) 
1.6152992618079427

>  <r_i_docking_score>  (1) 
-5.6873228345669737

>  <r_i_glide_ecoul>  (1) 
-8.7267999229884836

>  <r_i_glide_eff_state_penalty>  (1) 
0.0079456849206589828

>  <r_i_glide_einternal>  (1) 
17.90051406249194

>  <r_i_glide_emodel>  (1) 
-47.703389502602732

>  <r_i_glide_emodel_strain>  (1) 
0.071523733599647699

>  <r_i_glide_energy>  (1) 
-41.959932411351318

>  <r_i_glide_erotb>  (1) 
0.34657339541443727

>  <r_i_glide_esite>  (1) 
-0.014158330198903037

>  <r_i_glide_evdw>  (1) 
-33.233132488362834

>  <r_i_glide_gscore>  (1) 
-5.6952685194876329

>  <r_i_glide_gscore_strain>  (1) 
0

>  <r_i_glide_hbond>  (1) 
-0.16

>  <r_i_glide_ligand_efficiency>  (1) 
-0.14582879062992241

>  <r_i_glide_ligand_efficiency_ln>  (1) 
-1.2195234599904905

>  <r_i_glide_ligand_efficiency_sa>  (1) 
-0.49453626350510999

>  <r_i_glide_lipo>  (1) 
-1.9420384976508813

>  <r_i_glide_metal>  (1) 
-0

>  <r_i_glide_rewards>  (1) 
-0.95496847418587227

>  <r_lp_Energy>  (1) 
47.04589

>  <r_lp_tautomer_probability>  (1) 
0.99999997999999912

>  <s_epik_cmdline>  (1) 
J2VwaWtfcHl0aG9uJywgJy1waHQnLCAnMS4wJywgJy1waCcsICc3LjQnLCAnLXRuJywgJzgnLCAnLW1hJywgJzUwMCcsICctaW1hZScsICc8aW5maWxlLm1hZT4nLCAnLW9tYWUnLCAnPG91dGZpbGUubWFlPic=

>  <s_epik_input>  (1) 
W0NIM11bQ0BdMShbT0hdKVtDQEhdKFtDQEhdMTIpW0NIMl1OKFtDSDJdMilbQ0BASF0zW0NIMl1DKD1PKVtDSDJdW0NASF0oW0NAQEhdMzQpTihbQ0gyXVtDQEBIXShGKVtDSDJdW0NIMl00KUMoPU8pW0NIMl1jKG41KVtjSF1jKFtOK10oW08tXSk9TyljKGM1NilbTkhdW0NAQEhdKFtDSDJdW0NIMl02KVtDSDJdW09IXQ==

>  <s_glide_docking_method>  (1) 
confgen

>  <s_i_glide_gridfile>  (1) 
gpcr_drd2_6luq_protein_autoprepared_prepared

>  <s_lp_Force_Field>  (1) 
S-OPLS

>  <s_lp_Variant>  (1) 
DiffSBDD_75_num_sample_100-1

>  <s_m_source_file>  (1) 
generated__ligand_DiffSBDD_2026-05-06_prepared.sdf

>  <GenAI_Model>  (1) 
DiffSBDD

>  <Protein>  (1) 
generic_title2

$$$$
DiffSBDD_76_num_sample_100
     RDKit          3D

  0  0  0  0  0  0  0  0  0  0999 V3000
M  V30 BEGIN CTAB
M  V30 COUNTS 77 80 0 0 1
M  V30 BEGIN ATOM
M  V30 1 C 5.328256 3.628174 -13.168901 0
M  V30 2 C 8.550701 1.712706 -16.705122 0
M  V30 3 C 8.799907 4.794524 -12.203283 0
M  V30 4 N 6.534788 4.468594 -13.193228 0 CFG=1 CHG=1
M  V30 5 C 9.555942 1.551038 -17.705264 0
M  V30 6 C 11.995358 8.732697 -3.765604 0
M  V30 7 C 12.189780 9.524381 -4.823239 0
M  V30 8 C 10.505803 7.666472 -7.184926 0 CFG=1
M  V30 9 C 6.687855 2.044001 -14.656340 0
M  V30 10 N 9.435026 6.782417 -9.261426 0
M  V30 11 C 10.080299 7.758813 -10.110806 0
M  V30 12 C 7.347008 3.193147 -15.160287 0
M  V30 13 C 12.343348 9.017971 -6.242587 0
M  V30 14 C 9.021356 4.138993 -16.699539 0
M  V30 15 C 6.978850 0.800748 -15.230842 0
M  V30 16 C 9.181011 5.507348 -7.222910 0
M  V30 17 C 5.695886 2.152758 -13.486410 0
M  V30 18 C 8.506535 5.901770 -9.976141 0
M  V30 19 N 7.858096 0.640615 -16.233306 0
M  V30 20 O 9.270457 8.879273 -9.896144 0
M  V30 21 O 11.711247 1.455781 -19.755738 0
M  V30 22 C 11.834728 7.548093 -6.457890 0 CFG=1
M  V30 23 C 10.301479 2.679530 -18.177847 0
M  V30 24 C 9.258761 4.850930 -10.771943 0
M  V30 25 N 8.291153 8.565878 -6.689421 0 CHG=1
M  V30 26 C 10.097091 6.408256 -8.019464 0 CFG=2
M  V30 27 O 9.814432 0.293309 -18.193008 0 CHG=-1
M  V30 28 C 7.529881 3.980989 -12.218481 0
M  V30 29 C 8.303895 3.029103 -16.197525 0
M  V30 30 C 7.048906 4.576652 -14.573299 0
M  V30 31 C 9.531382 8.165696 -6.121816 0
M  V30 32 C 11.838689 7.302286 -3.912536 0
M  V30 33 C 11.740623 6.733762 -5.130584 0
M  V30 34 C 11.413301 2.517431 -19.207645 0
M  V30 35 C 10.011634 3.965637 -17.669953 0
M  V30 36 C 12.203264 3.781394 -19.540991 0
M  V30 37 H 4.848689 3.768979 -12.201750 0
M  V30 38 H 4.629470 4.032473 -13.898643 0
M  V30 39 H 8.667200 5.810628 -12.581122 0
M  V30 40 H 9.569260 4.335317 -12.835304 0
M  V30 41 H 11.918698 9.178916 -2.783855 0
M  V30 42 H 12.237116 10.575574 -4.688428 0
M  V30 43 H 10.623433 8.496232 -7.870222 0
M  V30 44 H 10.063532 7.463660 -11.154788 0
M  V30 45 H 11.123620 7.944100 -9.858923 0
M  V30 46 H 13.386988 9.093762 -6.545229 0
M  V30 47 H 11.859582 9.760564 -6.873433 0
M  V30 48 H 8.827759 5.130872 -16.328211 0
M  V30 49 H 6.493403 -0.094030 -14.874021 0
M  V30 50 H 9.554223 5.578724 -6.218058 0
M  V30 51 H 8.142013 5.821102 -7.190281 0
M  V30 52 H 9.208634 4.476921 -7.570224 0
M  V30 53 H 4.804113 1.531953 -13.565709 0
M  V30 54 H 6.182812 1.697278 -12.622880 0
M  V30 55 H 7.734432 5.476064 -9.337238 0
M  V30 56 H 7.954731 6.518775 -10.695098 0
M  V30 57 H 8.362925 8.551798 -9.891667 0
M  V30 58 H 12.529047 7.038679 -7.128944 0
M  V30 59 H 10.234635 5.218981 -10.906436 0
M  V30 60 H 9.293040 3.866944 -10.298280 0
M  V30 61 H 7.851160 9.259530 -6.106915 0
M  V30 62 H 8.454527 8.948608 -7.607721 0
M  V30 63 H 10.994889 5.866362 -8.308320 0
M  V30 64 H 7.853341 2.953627 -12.375370 0
M  V30 65 H 7.040798 3.994391 -11.245413 0
M  V30 66 H 6.304962 5.076066 -15.197118 0
M  V30 67 H 7.914072 5.236953 -14.557668 0
M  V30 68 H 9.405458 7.456424 -5.319334 0
M  V30 69 H 9.869165 9.081692 -5.656120 0
M  V30 70 H 11.764612 6.684808 -3.028073 0
M  V30 71 H 11.600884 5.664889 -5.220998 0
M  V30 72 H 10.557137 4.826446 -18.021021 0
M  V30 73 H 12.900914 3.579345 -20.350955 0
M  V30 74 H 11.552828 4.597776 -19.847945 0
M  V30 75 H 12.788772 4.086131 -18.673145 0
M  V30 76 H 7.629124 7.791765 -6.801203 0
M  V30 77 H 6.275217 5.399534 -12.894979 0
M  V30 END ATOM
M  V30 BEGIN BOND
M  V30 1 1 4 1
M  V30 2 2 5 2
M  V30 3 2 7 6
M  V30 4 1 11 10
M  V30 5 2 12 9
M  V30 6 1 13 7
M  V30 7 1 15 9
M  V30 8 1 17 1
M  V30 9 1 17 9
M  V30 10 1 18 10
M  V30 11 1 19 2
M  V30 12 2 19 15
M  V30 13 1 20 11
M  V30 14 1 22 8
M  V30 15 1 22 13
M  V30 16 1 23 5
M  V30 17 1 24 3
M  V30 18 1 24 18
M  V30 19 1 26 8
M  V30 20 1 26 10
M  V30 21 1 26 16
M  V30 22 1 27 5
M  V30 23 1 28 3
M  V30 24 1 28 4
M  V30 25 1 29 2
M  V30 26 1 29 12
M  V30 27 2 29 14
M  V30 28 1 30 4
M  V30 29 1 30 12
M  V30 30 1 31 8
M  V30 31 1 31 25
M  V30 32 1 32 6
M  V30 33 1 33 22
M  V30 34 2 33 32
M  V30 35 2 34 21
M  V30 36 1 34 23
M  V30 37 1 35 14
M  V30 38 2 35 23
M  V30 39 1 36 34
M  V30 40 1 37 1
M  V30 41 1 38 1
M  V30 42 1 39 3
M  V30 43 1 40 3
M  V30 44 1 41 6
M  V30 45 1 42 7
M  V30 46 1 8 43 CFG=3
M  V30 47 1 44 11
M  V30 48 1 45 11
M  V30 49 1 46 13
M  V30 50 1 47 13
M  V30 51 1 48 14
M  V30 52 1 49 15
M  V30 53 1 50 16
M  V30 54 1 51 16
M  V30 55 1 52 16
M  V30 56 1 53 17
M  V30 57 1 54 17
M  V30 58 1 55 18
M  V30 59 1 56 18
M  V30 60 1 57 20
M  V30 61 1 22 58 CFG=3
M  V30 62 1 59 24
M  V30 63 1 60 24
M  V30 64 1 61 25
M  V30 65 1 62 25
M  V30 66 1 26 63 CFG=3
M  V30 67 1 64 28
M  V30 68 1 65 28
M  V30 69 1 66 30
M  V30 70 1 67 30
M  V30 71 1 68 31
M  V30 72 1 69 31
M  V30 73 1 70 32
M  V30 74 1 71 33
M  V30 75 1 72 35
M  V30 76 1 73 36
M  V30 77 1 74 36
M  V30 78 1 75 36
M  V30 79 1 76 25
M  V30 80 1 4 77 CFG=1
M  V30 END BOND
M  V30 END CTAB
M  END
>  <i_epik_Tot_Q>  (1) 
1

>  <i_epik_Tot_abs_Q>  (1) 
3

>  <i_i_glide_confnum>  (1) 
1265

>  <i_i_glide_lignum>  (1) 
152

>  <i_i_glide_posenum>  (1) 
159

>  <i_i_glide_rotatable_bonds>  (1) 
12

>  <i_lp_mmshare_version>  (1) 
72125

>  <i_m_source_file_index>  (1) 
77

>  <i_f3d_flags>  (1) 
0

>  <num_sample>  (1) 
100

>  <b_lp_Chiralities_Consistent>  (1) 
1

>  <r_epik_Charging_Adjusted_Penalty>  (1) 
0.19513752508682314

>  <r_epik_Ionization_Penalty>  (1) 
0.12765993639139714

>  <r_epik_Ionization_Penalty_Charging>  (1) 
0.058121654325050918

>  <r_epik_Ionization_Penalty_Neutral>  (1) 
0.069538282066346213

>  <r_epik_State_Penalty>  (1) 
0.13701587076177221

>  <r_glide_ring_energy>  (1) 
0.68305203791256597

>  <r_i_docking_score>  (1) 
-5.6840430802622848

>  <r_i_glide_ecoul>  (1) 
-11.22363470824895

>  <r_i_glide_eff_state_penalty>  (1) 
0.13701587076177221

>  <r_i_glide_einternal>  (1) 
24.760282953361525

>  <r_i_glide_emodel>  (1) 
-12.565162857750451

>  <r_i_glide_emodel_strain>  (1) 
2.5461847033804048

>  <r_i_glide_energy>  (1) 
-12.15185237904695

>  <r_i_glide_erotb>  (1) 
0.46812735760266511

>  <r_i_glide_esite>  (1) 
-0.13212316955294909

>  <r_i_glide_evdw>  (1) 
-0.92821767079800088

>  <r_i_glide_gscore>  (1) 
-5.8210589510240567

>  <r_i_glide_gscore_strain>  (1) 
0

>  <r_i_glide_hbond>  (1) 
-0.34849335790940394

>  <r_i_glide_ligand_efficiency>  (1) 
-0.15789008556284123

>  <r_i_glide_ligand_efficiency_ln>  (1) 
-1.2401046350158358

>  <r_i_glide_ligand_efficiency_sa>  (1) 
-0.52134157585024976

>  <r_i_glide_lipo>  (1) 
-2.8295983052897409

>  <r_i_glide_metal>  (1) 
-0

>  <r_i_glide_rewards>  (1) 
-1.2490153860973847

>  <r_lp_Energy>  (1) 
69.514248999999992

>  <r_lp_tautomer_probability>  (1) 
0.99995000000000001

>  <s_epik_Chemistry_Notes>  (1) 
This compound contains an acetal/aminal-like group ( X-CH(R)-Y where X, Y are N, S, or O) that may be acid/base labile, releasing an aldehyde.

>  <s_epik_cmdline>  (1) 
J2VwaWtfcHl0aG9uJywgJy1waHQnLCAnMS4wJywgJy1waCcsICc3LjQnLCAnLXRuJywgJzgnLCAnLW1hJywgJzUwMCcsICctaW1hZScsICc8aW5maWxlLm1hZT4nLCAnLW9tYWUnLCAnPG91dGZpbGUubWFlPic=

>  <s_epik_input>  (1) 
Tz1DKFtDSDNdKWMoYzFbT0hdKVtjSF1bY0hdYyhjMTIpYzNjKFtjSF1uMilbQ0gyXVtDSDJdTihbQ0gyXTMpW0NIMl1bQ0gyXVtDSDJdW0NIMl1OKFtDSDJdW09IXSlbQ0BIXShbQ0gzXSlbQ0BASF0oW0NIMl1bTkgyXSlbQ0BIXTRbQ0gyXVtDSF09W0NIXVtDSF09W0NIXTQ=

>  <s_glide_docking_method>  (1) 
confgen

>  <s_i_glide_gridfile>  (1) 
gpcr_drd2_6luq_protein_autoprepared_prepared

>  <s_lp_Force_Field>  (1) 
S-OPLS

>  <s_lp_Variant>  (1) 
DiffSBDD_76_num_sample_100-1

>  <s_m_source_file>  (1) 
generated__ligand_DiffSBDD_2026-05-06_prepared.sdf

>  <GenAI_Model>  (1) 
DiffSBDD

>  <Protein>  (1) 
generic_title2

$$$$
DiffSBDD_75_num_sample_100
     RDKit          3D

  0  0  0  0  0  0  0  0  0  0999 V3000
M  V30 BEGIN CTAB
M  V30 COUNTS 76 81 0 0 1
M  V30 BEGIN ATOM
M  V30 1 C 7.017910 1.805943 -13.437092 0
M  V30 2 C 6.919411 3.234283 -12.926427 0
M  V30 3 C 9.574069 6.102671 -11.348169 0
M  V30 4 C 12.041021 8.097475 -7.475577 0 CFG=2
M  V30 5 F 6.634839 7.886184 -15.716662 0
M  V30 6 C 8.133483 1.508895 -14.429829 0
M  V30 7 C 8.049165 3.938704 -15.241353 0 CFG=1
M  V30 8 N 6.877434 5.637878 -13.793426 0
M  V30 9 O 8.727089 6.115176 -6.691672 0 CHG=-1
M  V30 10 C 8.081309 2.428625 -15.696735 0 CFG=2
M  V30 11 C 6.458518 0.099178 -19.257774 0 CFG=1
M  V30 12 N 8.557776 5.540101 -7.763145 0 CHG=1
M  V30 13 C 12.160629 8.330523 -9.979836 0
M  V30 14 O 7.834840 4.569301 -7.922706 0
M  V30 15 C 8.031331 5.069250 -16.325847 0
M  V30 16 C 9.271301 6.045850 -8.950974 0
M  V30 17 C 6.193771 1.527721 -18.837123 0 CFG=1
M  V30 18 C 12.329035 9.004212 -8.645874 0
M  V30 19 C 5.823888 0.388588 -17.920390 0 CFG=2
M  V30 20 C 7.838355 6.369415 -13.143219 0
M  V30 21 N 10.755559 7.439124 -7.571153 0
M  V30 22 C 6.665820 5.728390 -16.726073 0
M  V30 23 N 6.979839 2.038940 -16.633932 0 CFG=1 CHG=1
M  V30 24 C 7.165124 2.398769 -18.065440 0
M  V30 25 C 5.695850 -0.600169 -20.359067 0
M  V30 26 O 6.236397 0.935031 -13.067445 0
M  V30 27 C 5.682653 6.290155 -14.317690 0
M  V30 28 O 7.822581 -0.263818 -19.202135 0
M  V30 29 C 5.960566 6.743648 -15.765886 0 CFG=1
M  V30 30 O 7.693329 7.567291 -12.897247 0
M  V30 31 O 11.041987 9.769315 -6.031771 0
M  V30 32 C 6.580903 0.604183 -16.635043 0
M  V30 33 C 10.979747 7.392846 -10.031517 0
M  V30 34 C 8.899842 5.600749 -10.229101 0
M  V30 35 N 10.606375 6.980043 -11.271401 0
M  V30 36 C 9.158627 5.666557 -12.739241 0
M  V30 37 C 12.104355 8.855094 -6.128214 0
M  V30 38 C 10.339514 6.970872 -8.839035 0
M  V30 39 C 7.005042 4.205761 -14.126637 0 CFG=2
M  V30 40 H 7.689131 3.377440 -12.174107 0
M  V30 41 H 5.966439 3.362564 -12.411636 0
M  V30 42 H 12.797093 7.315691 -7.491667 0
M  V30 43 H 9.034838 1.687706 -13.857537 0
M  V30 44 H 8.155260 0.445989 -14.666872 0
M  V30 45 H 9.034517 4.058992 -14.798950 0
M  V30 46 H 9.011611 2.260086 -16.242848 0
M  V30 47 H 13.054585 7.769330 -10.233287 0
M  V30 48 H 12.059949 9.130557 -10.691667 0
M  V30 49 H 8.537157 4.704973 -17.219485 0
M  V30 50 H 8.680408 5.871821 -15.976185 0
M  V30 51 H 5.364716 2.051462 -19.310343 0
M  V30 52 H 11.655946 9.855589 -8.616902 0
M  V30 53 H 13.348750 9.369285 -8.577129 0
M  V30 54 H 4.763503 0.169285 -17.810735 0
M  V30 55 H 10.356514 7.020989 -6.736402 0
M  V30 56 H 5.949179 4.969302 -17.001091 0
M  V30 57 H 6.841267 6.267324 -17.657654 0
M  V30 58 H 6.949050 3.443291 -18.270240 0
M  V30 59 H 8.184055 2.196108 -18.397426 0
M  V30 60 H 4.634808 -0.358346 -20.291676 0
M  V30 61 H 6.059348 -0.288203 -21.338379 0
M  V30 62 H 5.804188 -1.681472 -20.269407 0
M  V30 63 H 4.831522 5.609837 -14.287731 0
M  V30 64 H 5.378582 7.139555 -13.703312 0
M  V30 65 H 8.179543 -0.226666 -20.077253 0
M  V30 66 H 5.009581 7.030756 -16.215763 0
M  V30 67 H 10.291670 9.348691 -6.430825 0
M  V30 68 H 7.448692 -0.056735 -16.626420 0
M  V30 69 H 5.946374 0.357627 -15.783109 0
M  V30 70 H 8.087414 4.899837 -10.349816 0
M  V30 71 H 9.930501 5.948836 -13.455312 0
M  V30 72 H 9.154054 4.585822 -12.731684 0
M  V30 73 H 13.055501 9.373373 -6.003335 0
M  V30 74 H 11.991778 8.169291 -5.288111 0
M  V30 75 H 6.081828 3.957306 -14.648729 0
M  V30 76 H 6.151459 2.528777 -16.329189 0
M  V30 END ATOM
M  V30 BEGIN BOND
M  V30 1 1 2 1
M  V30 2 1 6 1
M  V30 3 1 10 6
M  V30 4 1 10 7
M  V30 5 1 12 9
M  V30 6 2 14 12
M  V30 7 1 15 7
M  V30 8 1 16 12
M  V30 9 1 17 11
M  V30 10 1 18 4
M  V30 11 1 18 13
M  V30 12 1 19 11
M  V30 13 1 19 17
M  V30 14 1 20 8
M  V30 15 1 21 4
M  V30 16 1 22 15
M  V30 17 1 23 10
M  V30 18 1 24 17
M  V30 19 1 24 23
M  V30 20 1 25 11
M  V30 21 2 26 1
M  V30 22 1 27 8
M  V30 23 1 11 28 CFG=1
M  V30 24 1 29 5
M  V30 25 1 29 22
M  V30 26 1 29 27
M  V30 27 2 30 20
M  V30 28 1 32 19
M  V30 29 1 32 23
M  V30 30 1 33 13
M  V30 31 2 34 3
M  V30 32 1 34 16
M  V30 33 1 35 3
M  V30 34 2 35 33
M  V30 35 1 36 3
M  V30 36 1 36 20
M  V30 37 1 37 4
M  V30 38 1 37 31
M  V30 39 2 38 16
M  V30 40 1 38 21
M  V30 41 1 38 33
M  V30 42 1 39 2
M  V30 43 1 39 7
M  V30 44 1 39 8
M  V30 45 1 40 2
M  V30 46 1 41 2
M  V30 47 1 4 42 CFG=1
M  V30 48 1 43 6
M  V30 49 1 44 6
M  V30 50 1 7 45 CFG=1
M  V30 51 1 10 46 CFG=3
M  V30 52 1 47 13
M  V30 53 1 48 13
M  V30 54 1 49 15
M  V30 55 1 50 15
M  V30 56 1 17 51 CFG=3
M  V30 57 1 52 18
M  V30 58 1 53 18
M  V30 59 1 19 54 CFG=1
M  V30 60 1 55 21
M  V30 61 1 56 22
M  V30 62 1 57 22
M  V30 63 1 58 24
M  V30 64 1 59 24
M  V30 65 1 60 25
M  V30 66 1 61 25
M  V30 67 1 62 25
M  V30 68 1 63 27
M  V30 69 1 64 27
M  V30 70 1 65 28
M  V30 71 1 29 66 CFG=3
M  V30 72 1 67 31
M  V30 73 1 68 32
M  V30 74 1 69 32
M  V30 75 1 70 34
M  V30 76 1 71 36
M  V30 77 1 72 36
M  V30 78 1 73 37
M  V30 79 1 74 37
M  V30 80 1 39 75 CFG=3
M  V30 81 1 23 76 CFG=1
M  V30 END BOND
M  V30 END CTAB
M  END
>  <i_epik_Tot_Q>  (1) 
1

>  <i_epik_Tot_abs_Q>  (1) 
3

>  <i_i_glide_confnum>  (1) 
264

>  <i_i_glide_lignum>  (1) 
151

>  <i_i_glide_posenum>  (1) 
273

>  <i_i_glide_rotatable_bonds>  (1) 
8

>  <i_lp_mmshare_version>  (1) 
72125

>  <i_m_source_file_index>  (1) 
76

>  <i_f3d_flags>  (1) 
0

>  <num_sample>  (1) 
100

>  <b_lp_Chiralities_Consistent>  (1) 
1

>  <r_epik_Charging_Adjusted_Penalty>  (1) 
0.015891369841317948

>  <r_epik_Ionization_Penalty>  (1) 
0.0079711574059170582

>  <r_epik_Ionization_Penalty_Charging>  (1) 
0.0079456849206589655

>  <r_epik_Ionization_Penalty_Neutral>  (1) 
2.5472485258093083e-05

>  <r_epik_State_Penalty>  (1) 
0.0079456849206589828

>  <r_glide_ring_energy>  (1) 
0

>  <r_i_docking_score>  (1) 
-5.6794688857350595

>  <r_i_glide_ecoul>  (1) 
-2.3021339982281104

>  <r_i_glide_eff_state_penalty>  (1) 
0.0079456849206589828

>  <r_i_glide_einternal>  (1) 
16.167535207631911

>  <r_i_glide_emodel>  (1) 
-30.482318172991441

>  <r_i_glide_emodel_strain>  (1) 
0.45922434204079821

>  <r_i_glide_energy>  (1) 
-36.609036067517707

>  <r_i_glide_erotb>  (1) 
0.34657339541443727

>  <r_i_glide_esite>  (1) 
-0.14215916502930767

>  <r_i_glide_evdw>  (1) 
-34.306902069289599

>  <r_i_glide_gscore>  (1) 
-5.6874145706557186

>  <r_i_glide_gscore_strain>  (1) 
0

>  <r_i_glide_hbond>  (1) 
0

>  <r_i_glide_ligand_efficiency>  (1) 
-0.14562740732653998

>  <r_i_glide_ligand_efficiency_ln>  (1) 
-1.2178393504133325

>  <r_i_glide_ligand_efficiency_sa>  (1) 
-0.49385333014224758

>  <r_i_glide_lipo>  (1) 
-2.4293076714045991

>  <r_i_glide_metal>  (1) 
-0

>  <r_i_glide_rewards>  (1) 
-1.4018559264375532

>  <r_lp_Energy>  (1) 
44.445350999999995

>  <r_lp_tautomer_probability>  (1) 
0.99999997999999912

>  <s_epik_cmdline>  (1) 
J2VwaWtfcHl0aG9uJywgJy1waHQnLCAnMS4wJywgJy1waCcsICc3LjQnLCAnLXRuJywgJzgnLCAnLW1hJywgJzUwMCcsICctaW1hZScsICc8aW5maWxlLm1hZT4nLCAnLW9tYWUnLCAnPG91dGZpbGUubWFlPic=

>  <s_epik_input>  (1) 
W0NIM11bQ0BdMShbT0hdKVtDQEhdKFtDQEhdMTIpW0NIMl1OKFtDSDJdMilbQ0BASF0zW0NIMl1DKD1PKVtDSDJdW0NASF0oW0NAQEhdMzQpTihbQ0gyXVtDQEBIXShGKVtDSDJdW0NIMl00KUMoPU8pW0NIMl1jKG41KVtjSF1jKFtOK10oW08tXSk9TyljKGM1NilbTkhdW0NAQEhdKFtDSDJdW0NIMl02KVtDSDJdW09IXQ==

>  <s_glide_docking_method>  (1) 
confgen

>  <s_i_glide_gridfile>  (1) 
gpcr_drd2_6luq_protein_autoprepared_prepared

>  <s_lp_Force_Field>  (1) 
S-OPLS

>  <s_lp_Variant>  (1) 
DiffSBDD_75_num_sample_100-2

>  <s_m_source_file>  (1) 
generated__ligand_DiffSBDD_2026-05-06_prepared.sdf

>  <GenAI_Model>  (1) 
DiffSBDD

>  <Protein>  (1) 
generic_title2

$$$$
DiffSBDD_28_num_sample_100
     RDKit          3D

  0  0  0  0  0  0  0  0  0  0999 V3000
M  V30 BEGIN CTAB
M  V30 COUNTS 43 44 0 0 1
M  V30 BEGIN ATOM
M  V30 1 C 11.526721 6.569335 -2.840210 0
M  V30 2 C 6.303013 4.865315 -11.116761 0
M  V30 3 C 11.140861 6.517651 -4.336705 0
M  V30 4 N 10.456527 6.645042 -7.148565 0
M  V30 5 C 12.188641 8.997787 -3.083148 0
M  V30 6 C 10.224306 6.569295 -8.407962 0
M  V30 7 C 11.834843 8.914821 -4.552273 0
M  V30 8 O 10.423893 7.575292 -10.615421 0
M  V30 9 C 8.188457 5.634541 -9.702028 0
M  V30 10 C 8.606399 4.154727 -11.671011 0
M  V30 11 C 9.539860 5.337108 -9.011966 0
M  V30 12 C 6.250526 5.987133 -12.172155 0
M  V30 13 C 11.431086 8.791906 -7.432376 0
M  V30 14 N 11.201927 8.738872 -8.810136 0
M  V30 15 N 7.668252 4.569311 -10.598037 0 CFG=2 CHG=1
M  V30 16 C 12.593190 7.625321 -2.542648 0
M  V30 17 C 10.619743 7.674107 -9.405014 0
M  V30 18 C 11.084232 7.778337 -6.602861 0
M  V30 19 C 11.358357 7.796343 -5.153307 0
M  V30 20 H 10.648777 6.730889 -2.215807 0
M  V30 21 H 11.901892 5.596273 -2.529385 0
M  V30 22 H 5.891597 3.951085 -11.546611 0
M  V30 23 H 5.641560 5.124956 -10.291666 0
M  V30 24 H 10.113613 6.169772 -4.446676 0
M  V30 25 H 11.768843 5.769301 -4.815915 0
M  V30 26 H 13.025691 9.686778 -2.971198 0
M  V30 27 H 11.355291 9.419782 -2.524098 0
M  V30 28 H 11.992670 9.812830 -5.122639 0
M  V30 29 H 7.446524 5.769301 -8.915275 0
M  V30 30 H 8.234839 6.546644 -10.291691 0
M  V30 31 H 9.012694 5.016644 -12.202448 0
M  V30 32 H 9.434839 3.576434 -11.264865 0
M  V30 33 H 8.110406 3.509639 -12.397087 0
M  V30 34 H 10.234839 4.903396 -9.716084 0
M  V30 35 H 9.396090 4.582877 -8.237636 0
M  V30 36 H 5.227252 6.136661 -12.515239 0
M  V30 37 H 6.590810 6.942491 -11.772642 0
M  V30 38 H 6.851211 5.755053 -13.051202 0
M  V30 39 H 11.922601 9.695257 -7.114208 0
M  V30 40 H 11.503029 9.524012 -9.368336 0
M  V30 41 H 12.790846 7.682965 -1.473468 0
M  V30 42 H 13.524320 7.323920 -3.021698 0
M  V30 43 H 7.548036 3.759491 -10.006250 0
M  V30 END ATOM
M  V30 BEGIN BOND
M  V30 1 1 3 1
M  V30 2 2 6 4
M  V30 3 1 7 5
M  V30 4 1 11 6
M  V30 5 1 11 9
M  V30 6 1 12 2
M  V30 7 1 14 13
M  V30 8 1 15 2
M  V30 9 1 15 9
M  V30 10 1 15 10
M  V30 11 1 16 1
M  V30 12 1 16 5
M  V30 13 1 17 6
M  V30 14 2 17 8
M  V30 15 1 17 14
M  V30 16 1 18 4
M  V30 17 2 18 13
M  V30 18 1 19 3
M  V30 19 2 19 7
M  V30 20 1 19 18
M  V30 21 1 20 1
M  V30 22 1 21 1
M  V30 23 1 22 2
M  V30 24 1 23 2
M  V30 25 1 24 3
M  V30 26 1 25 3
M  V30 27 1 26 5
M  V30 28 1 27 5
M  V30 29 1 28 7
M  V30 30 1 29 9
M  V30 31 1 30 9
M  V30 32 1 31 10
M  V30 33 1 32 10
M  V30 34 1 33 10
M  V30 35 1 34 11
M  V30 36 1 35 11
M  V30 37 1 36 12
M  V30 38 1 37 12
M  V30 39 1 38 12
M  V30 40 1 39 13
M  V30 41 1 40 14
M  V30 42 1 41 16
M  V30 43 1 42 16
M  V30 44 1 15 43 CFG=1
M  V30 END BOND
M  V30 END CTAB
M  END
>  <i_epik_Tot_Q>  (1) 
1

>  <i_epik_Tot_abs_Q>  (1) 
1

>  <i_i_glide_confnum>  (1) 
89

>  <i_i_glide_lignum>  (1) 
48

>  <i_i_glide_posenum>  (1) 
65

>  <i_i_glide_rotatable_bonds>  (1) 
5

>  <i_lp_mmshare_version>  (1) 
72125

>  <i_m_source_file_index>  (1) 
29

>  <i_f3d_flags>  (1) 
0

>  <num_sample>  (1) 
100

>  <b_lp_Chiralities_Consistent>  (1) 
1

>  <r_epik_Charging_Adjusted_Penalty>  (1) 
0.16160378579191387

>  <r_epik_Ionization_Penalty>  (1) 
0.086651210493904285

>  <r_epik_Ionization_Penalty_Charging>  (1) 
0.086651186480528317

>  <r_epik_Ionization_Penalty_Neutral>  (1) 
2.4013375966173516e-08

>  <r_epik_State_Penalty>  (1) 
0.074952599311385565

>  <r_glide_ring_energy>  (1) 
0.00030236742994427327

>  <r_i_docking_score>  (1) 
-5.6695930997932447

>  <r_i_glide_ecoul>  (1) 
-3.8196711920184687

>  <r_i_glide_eff_state_penalty>  (1) 
0.074952599311385565

>  <r_i_glide_einternal>  (1) 
12.132920398104488

>  <r_i_glide_emodel>  (1) 
-44.644826705583618

>  <r_i_glide_emodel_strain>  (1) 
1.3209225675340619

>  <r_i_glide_energy>  (1) 
-36.441557261932829

>  <r_i_glide_erotb>  (1) 
1.0307106156986021

>  <r_i_glide_esite>  (1) 
-0.031592429487378337

>  <r_i_glide_evdw>  (1) 
-32.62188606991436

>  <r_i_glide_gscore>  (1) 
-5.7445456991046306

>  <r_i_glide_gscore_strain>  (1) 
0

>  <r_i_glide_hbond>  (1) 
0

>  <r_i_glide_ligand_efficiency>  (1) 
-0.29839963683122339

>  <r_i_glide_ligand_efficiency_ln>  (1) 
-1.4373636224919806

>  <r_i_glide_ligand_efficiency_sa>  (1) 
-0.79625008289846622

>  <r_i_glide_lipo>  (1) 
-2.2095247747302245

>  <r_i_glide_metal>  (1) 
-0

>  <r_i_glide_rewards>  (1) 
-2.3300941282871417

>  <r_lp_Energy>  (1) 
45.017665000000001

>  <s_epik_cmdline>  (1) 
J2VwaWtfcHl0aG9uJywgJy1waHQnLCAnMS4wJywgJy1waCcsICc3LjQnLCAnLXRuJywgJzgnLCAnLW1hJywgJzUwMCcsICctaW1hZScsICc8aW5maWxlLm1hZT4nLCAnLW9tYWUnLCAnPG91dGZpbGUubWFlPic=

>  <s_epik_input>  (1) 
W0NIMl0xW0NIMl1bQ0gyXVtDSDJdW0NIXT1DMWMoW2NIXVtuSF1jMj1PKW5jMltDSDJdW0NIMl1OKFtDSDNdKVtDSDJdW0NIM10=

>  <s_glide_docking_method>  (1) 
confgen

>  <s_i_glide_gridfile>  (1) 
gpcr_drd2_6luq_protein_autoprepared_prepared

>  <s_lp_Force_Field>  (1) 
S-OPLS

>  <s_lp_Variant>  (1) 
DiffSBDD_28_num_sample_100-2

>  <s_m_source_file>  (1) 
generated__ligand_DiffSBDD_2026-05-06_prepared.sdf

>  <GenAI_Model>  (1) 
DiffSBDD

>  <Protein>  (1) 
generic_title2

$$$$
DiffSBDD_71_num_sample_100
     RDKit          3D

  0  0  0  0  0  0  0  0  0  0999 V3000
M  V30 BEGIN CTAB
M  V30 COUNTS 59 61 0 0 1
M  V30 BEGIN ATOM
M  V30 1 C 7.910500 0.309172 -13.760276 0
M  V30 2 C 11.962380 9.023463 -3.158863 0
M  V30 3 C 7.888776 0.021003 -15.271777 0
M  V30 4 C 6.666256 -0.244064 -13.032129 0
M  V30 5 N 7.996018 7.175712 -12.691668 0
M  V30 6 O 5.613119 2.476364 -13.491600 0
M  V30 7 C 8.637700 6.033679 -12.033049 0 CFG=2
M  V30 8 N 10.761274 8.388613 -9.040145 0
M  V30 9 F 13.033287 6.969322 -2.933245 0
M  V30 10 C 11.362956 8.465813 -6.842659 0
M  V30 11 C 6.618785 6.962212 -13.119699 0
M  V30 12 C 10.151911 6.222886 -12.118861 0
M  V30 13 O 5.435043 5.518934 -14.598491 0
M  V30 14 C 11.430852 7.128917 -4.654394 0
M  V30 15 C 10.361676 7.189762 -9.742547 0
M  V30 16 N 8.062703 1.745603 -13.492783 0
M  V30 17 C 11.234207 8.484895 -5.345922 0 CFG=1
M  V30 18 S 6.891580 2.865251 -14.092714 0
M  V30 19 C 12.149792 9.461655 -4.616750 0
M  V30 20 C 11.836026 7.486603 -3.207927 0 CFG=2
M  V30 21 C 12.286659 8.516302 -8.953220 0
M  V30 22 O 7.046703 2.927781 -15.553569 0
M  V30 23 C 10.674839 7.355682 -11.236970 0
M  V30 24 N 12.473726 8.570672 -7.491056 0
M  V30 25 C 6.358680 5.620085 -13.799040 0
M  V30 26 N 10.367808 8.345861 -7.647888 0 CHG=1
M  V30 27 C 7.239879 4.501121 -13.440526 0
M  V30 28 C 8.276475 4.693180 -12.624298 0
M  V30 29 H 8.801983 -0.167170 -13.351533 0
M  V30 30 H 12.770384 9.365064 -2.510474 0
M  V30 31 H 11.036515 9.455213 -2.772371 0
M  V30 32 H 8.102162 -1.027307 -15.482474 0
M  V30 33 H 6.917551 0.252566 -15.710405 0
M  V30 34 H 8.634639 0.612160 -15.801984 0
M  V30 35 H 6.634772 -1.329688 -13.046460 0
M  V30 36 H 6.637241 0.063907 -11.986763 0
M  V30 37 H 5.735950 0.065289 -13.504980 0
M  V30 38 H 8.023420 7.970024 -12.065426 0
M  V30 39 H 8.284928 5.979072 -11.004918 0
M  V30 40 H 6.325181 7.769283 -13.790599 0
M  V30 41 H 5.971999 7.022243 -12.243290 0
M  V30 42 H 10.634856 5.278602 -11.888705 0
M  V30 43 H 10.447584 6.414512 -13.146926 0
M  V30 44 H 10.516066 6.535713 -4.683565 0
M  V30 45 H 12.206828 6.536783 -5.135917 0
M  V30 46 H 9.289663 7.085414 -9.584051 0
M  V30 47 H 10.834574 6.308681 -9.310926 0
M  V30 48 H 8.259650 1.906225 -12.505062 0
M  V30 49 H 10.234805 8.824076 -5.123175 0
M  V30 50 H 13.191498 9.361015 -4.920825 0
M  V30 51 H 11.842083 10.494224 -4.784952 0
M  V30 52 H 11.161195 7.075464 -2.453763 0
M  V30 53 H 12.811525 7.656611 -9.369709 0
M  V30 54 H 13.380113 8.681855 -7.060310 0
M  V30 55 H 11.749512 7.435799 -11.397439 0
M  V30 56 H 10.234048 8.289519 -11.583121 0
M  V30 57 H 12.634863 9.419918 -9.450073 0
M  V30 58 H 8.911324 3.861933 -12.358287 0
M  V30 59 H 9.385629 8.245547 -7.417915 0
M  V30 END ATOM
M  V30 BEGIN BOND
M  V30 1 1 3 1
M  V30 2 1 4 1
M  V30 3 1 7 5
M  V30 4 1 11 5
M  V30 5 1 12 7
M  V30 6 1 15 8
M  V30 7 1 16 1
M  V30 8 1 17 10
M  V30 9 1 17 14
M  V30 10 2 18 6
M  V30 11 1 18 16
M  V30 12 1 19 2
M  V30 13 1 19 17
M  V30 14 1 20 2
M  V30 15 1 20 9
M  V30 16 1 20 14
M  V30 17 1 21 8
M  V30 18 2 22 18
M  V30 19 1 23 12
M  V30 20 1 23 15
M  V30 21 1 24 10
M  V30 22 1 24 21
M  V30 23 1 25 11
M  V30 24 2 25 13
M  V30 25 1 26 8
M  V30 26 2 26 10
M  V30 27 1 27 18
M  V30 28 1 27 25
M  V30 29 1 28 7
M  V30 30 2 28 27
M  V30 31 1 29 1
M  V30 32 1 30 2
M  V30 33 1 31 2
M  V30 34 1 32 3
M  V30 35 1 33 3
M  V30 36 1 34 3
M  V30 37 1 35 4
M  V30 38 1 36 4
M  V30 39 1 37 4
M  V30 40 1 38 5
M  V30 41 1 7 39 CFG=1
M  V30 42 1 40 11
M  V30 43 1 41 11
M  V30 44 1 42 12
M  V30 45 1 43 12
M  V30 46 1 44 14
M  V30 47 1 45 14
M  V30 48 1 46 15
M  V30 49 1 47 15
M  V30 50 1 48 16
M  V30 51 1 17 49 CFG=3
M  V30 52 1 50 19
M  V30 53 1 51 19
M  V30 54 1 20 52 CFG=1
M  V30 55 1 53 21
M  V30 56 1 54 24
M  V30 57 1 55 23
M  V30 58 1 56 23
M  V30 59 1 57 21
M  V30 60 1 58 28
M  V30 61 1 59 26
M  V30 END BOND
M  V30 END CTAB
M  END
>  <i_epik_Tot_Q>  (1) 
1

>  <i_epik_Tot_abs_Q>  (1) 
1

>  <i_i_glide_confnum>  (1) 
1126

>  <i_i_glide_lignum>  (1) 
143

>  <i_i_glide_posenum>  (1) 
4

>  <i_i_glide_rotatable_bonds>  (1) 
8

>  <i_lp_mmshare_version>  (1) 
72125

>  <i_m_source_file_index>  (1) 
72

>  <i_f3d_flags>  (1) 
0

>  <num_sample>  (1) 
100

>  <b_lp_Chiralities_Consistent>  (1) 
1

>  <r_epik_Charging_Adjusted_Penalty>  (1) 
1.5363623663438353e-06

>  <r_epik_Ionization_Penalty>  (1) 
0.0003005008715709513

>  <r_epik_Ionization_Penalty_Charging>  (1) 
1.5363623663438353e-06

>  <r_epik_Ionization_Penalty_Neutral>  (1) 
0.00029896450920460744

>  <r_epik_State_Penalty>  (1) 
-0

>  <r_glide_ring_energy>  (1) 
0

>  <r_i_docking_score>  (1) 
-5.6671159253383703

>  <r_i_glide_ecoul>  (1) 
-4.114072423806455

>  <r_i_glide_eff_state_penalty>  (1) 
-0

>  <r_i_glide_einternal>  (1) 
8.1336604531515775

>  <r_i_glide_emodel>  (1) 
-45.316040146397569

>  <r_i_glide_emodel_strain>  (1) 
0

>  <r_i_glide_energy>  (1) 
-35.358295249386217

>  <r_i_glide_erotb>  (1) 
0.79707636493019229

>  <r_i_glide_esite>  (1) 
-0.0020212658065890065

>  <r_i_glide_evdw>  (1) 
-31.244222825579762

>  <r_i_glide_gscore>  (1) 
-5.6671159253383703

>  <r_i_glide_gscore_strain>  (1) 
0

>  <r_i_glide_hbond>  (1) 
0

>  <r_i_glide_ligand_efficiency>  (1) 
-0.20239699733351321

>  <r_i_glide_ligand_efficiency_ln>  (1) 
-1.308136749321924

>  <r_i_glide_ligand_efficiency_sa>  (1) 
-0.61459649004369421

>  <r_i_glide_lipo>  (1) 
-2.0982745613034322

>  <r_i_glide_metal>  (1) 
-0

>  <r_i_glide_rewards>  (1) 
-2.1845744583085858

>  <r_lp_Energy>  (1) 
26.720799

>  <r_lp_tautomer_probability>  (1) 
1

>  <s_epik_Chemistry_Notes>  (1) 
This compound has an imine and may undergo hydrolysis. This compound contains an acetal/aminal-like group ( X-CH(R)-Y where X, Y are N, S, or O) that may be acid/base labile, releasing an aldehyde.

>  <s_epik_cmdline>  (1) 
J2VwaWtfcHl0aG9uJywgJy1waHQnLCAnMS4wJywgJy1waCcsICc3LjQnLCAnLXRuJywgJzgnLCAnLW1hJywgJzUwMCcsICctaW1hZScsICc8aW5maWxlLm1hZT4nLCAnLW9tYWUnLCAnPG91dGZpbGUubWFlPic=

>  <s_epik_input>  (1) 
W0NIM11bQ0hdKFtDSDNdKVtOSF1TKD1PKSg9TylDKD1bQ0hdMSlDKD1PKVtDSDJdW05IXVtDQEBIXTFbQ0gyXVtDSDJdW0NIMl1OMltDSDJdTj1DKFtOSF0yKVtDQEhdM1tDSDJdW0NAQEhdKEYpW0NIMl1bQ0gyXTM=

>  <s_glide_docking_method>  (1) 
confgen

>  <s_i_glide_gridfile>  (1) 
gpcr_drd2_6luq_protein_autoprepared_prepared

>  <s_lp_Force_Field>  (1) 
S-OPLS

>  <s_lp_Variant>  (1) 
DiffSBDD_71_num_sample_100-1

>  <s_m_source_file>  (1) 
generated__ligand_DiffSBDD_2026-05-06_prepared.sdf

>  <GenAI_Model>  (1) 
DiffSBDD

>  <Protein>  (1) 
generic_title2

$$$$
DiffSBDD_26_num_sample_100
     RDKit          3D

  0  0  0  0  0  0  0  0  0  0999 V3000
M  V30 BEGIN CTAB
M  V30 COUNTS 72 77 0 0 1
M  V30 BEGIN ATOM
M  V30 1 C 10.226060 6.924129 -20.130119 0
M  V30 2 C 11.348282 7.760979 -5.157841 0
M  V30 3 C 8.336176 5.614804 -13.969503 0
M  V30 4 C 11.413265 7.827847 -8.223185 0
M  V30 5 F 10.184373 7.280465 -11.637934 0
M  V30 6 C 6.449756 5.257696 -17.383606 0 CFG=1
M  V30 7 C 6.390530 6.854604 -13.238655 0
M  V30 8 N 12.417455 8.504895 -3.288208 0
M  V30 9 C 4.674352 7.572876 -19.171219 0
M  V30 10 C 5.370736 6.361608 -19.809251 0 CFG=1
M  V30 11 C 6.491773 6.763664 -20.827338 0
M  V30 12 C 10.538118 7.003170 -7.477563 0
M  V30 13 C 11.835796 7.459856 -3.852350 0
M  V30 14 C 9.434528 6.314734 -9.565106 0
M  V30 15 N 11.427820 10.018499 -6.291006 0
M  V30 16 C 11.669584 9.094216 -5.300803 0
M  V30 17 O 12.328033 9.545364 -4.211341 0
M  V30 18 C 9.243953 5.100742 -15.066454 0
M  V30 19 C 8.275969 5.455509 -19.458855 0 CFG=2
M  V30 20 C 11.773005 6.169520 -3.111947 0
M  V30 21 N 10.640737 6.881008 -6.066699 0
M  V30 22 C 7.275717 5.919509 -18.417748 0 CFG=1
M  V30 23 C 9.604594 6.159085 -19.217617 0
M  V30 24 C 5.866923 6.038627 -16.214291 0
M  V30 25 C 11.278012 7.922581 -9.620828 0
M  V30 26 C 6.752009 6.539036 -11.921939 0
M  V30 27 C 9.688557 7.175237 -21.520877 0
M  V30 28 C 5.903038 5.337874 -18.802554 0 CFG=1
M  V30 29 C 8.371441 5.445283 -10.278213 0
M  V30 30 C 10.291031 7.178125 -10.295052 0
M  V30 31 C 9.560208 6.239062 -8.158017 0
M  V30 32 C 8.722901 6.062011 -21.951506 0
M  V30 33 O 6.924577 6.729619 -15.583441 0
M  V30 34 C 7.205009 6.397948 -14.284457 0
M  V30 35 C 7.662327 5.728733 -20.881749 0 CFG=2
M  V30 36 C 7.916767 5.774246 -11.700485 0
M  V30 37 N 8.686554 5.281357 -12.703864 0
M  V30 38 H 11.162243 7.400531 -19.879100 0
M  V30 39 H 11.689334 10.989558 -6.214071 0
M  V30 40 H 12.197860 8.372902 -7.737174 0
M  V30 41 H 6.845287 4.294070 -17.072042 0
M  V30 42 H 5.517187 7.453560 -13.441333 0
M  V30 43 H 5.365064 8.164040 -18.571100 0
M  V30 44 H 3.857030 7.259540 -18.522911 0
M  V30 45 H 4.254585 8.228995 -19.934096 0
M  V30 46 H 4.607437 5.832523 -20.381624 0
M  V30 47 H 6.059784 6.901995 -21.819276 0
M  V30 48 H 6.904559 7.734482 -20.550350 0
M  V30 49 H 10.888402 9.794627 -7.115769 0
M  V30 50 H 9.282915 5.793921 -15.903758 0
M  V30 51 H 8.880018 4.145989 -15.439145 0
M  V30 52 H 10.259071 4.969831 -14.696627 0
M  V30 53 H 8.449316 4.385213 -19.336485 0
M  V30 54 H 11.534970 5.370060 -3.807026 0
M  V30 55 H 11.009458 6.196817 -2.336391 0
M  V30 56 H 10.201055 6.057385 -5.675466 0
M  V30 57 H 7.344935 6.992672 -18.255871 0
M  V30 58 H 10.050100 6.026602 -18.242912 0
M  V30 59 H 5.136868 6.767753 -16.561762 0
M  V30 60 H 5.352912 5.369201 -15.527880 0
M  V30 61 H 11.943671 8.561013 -10.182363 0
M  V30 62 H 6.158865 6.890483 -11.091667 0
M  V30 63 H 10.522883 7.227867 -22.220649 0
M  V30 64 H 9.196910 8.147948 -21.534399 0
M  V30 65 H 5.867886 4.339837 -19.237247 0
M  V30 66 H 8.736393 4.417832 -10.284243 0
M  V30 67 H 7.483270 5.428925 -9.648016 0
M  V30 68 H 8.903457 5.589747 -7.598360 0
M  V30 69 H 8.245757 6.321579 -22.897117 0
M  V30 70 H 9.306121 5.161722 -22.150429 0
M  V30 71 H 7.202091 4.795534 -21.211689 0
M  V30 72 H 12.727103 5.931727 -2.641086 0
M  V30 END ATOM
M  V30 BEGIN BOND
M  V30 1 1 10 9
M  V30 2 1 11 10
M  V30 3 1 12 4
M  V30 4 1 13 2
M  V30 5 2 13 8
M  V30 6 2 16 2
M  V30 7 1 16 15
M  V30 8 1 17 8
M  V30 9 1 17 16
M  V30 10 1 18 3
M  V30 11 1 20 13
M  V30 12 1 21 2
M  V30 13 1 21 12
M  V30 14 1 22 6
M  V30 15 1 22 19
M  V30 16 2 23 1
M  V30 17 1 23 19
M  V30 18 1 24 6
M  V30 19 2 25 4
M  V30 20 2 26 7
M  V30 21 1 27 1
M  V30 22 1 28 6
M  V30 23 1 28 10
M  V30 24 1 28 22
M  V30 25 1 29 14
M  V30 26 1 30 5
M  V30 27 2 30 14
M  V30 28 1 30 25
M  V30 29 2 31 12
M  V30 30 1 31 14
M  V30 31 1 32 27
M  V30 32 1 33 24
M  V30 33 2 34 3
M  V30 34 1 34 7
M  V30 35 1 34 33
M  V30 36 1 35 11
M  V30 37 1 35 19
M  V30 38 1 35 32
M  V30 39 1 36 26
M  V30 40 1 36 29
M  V30 41 1 37 3
M  V30 42 2 37 36
M  V30 43 1 38 1
M  V30 44 1 39 15
M  V30 45 1 40 4
M  V30 46 1 6 41 CFG=1
M  V30 47 1 42 7
M  V30 48 1 43 9
M  V30 49 1 44 9
M  V30 50 1 45 9
M  V30 51 1 10 46 CFG=3
M  V30 52 1 47 11
M  V30 53 1 48 11
M  V30 54 1 49 15
M  V30 55 1 50 18
M  V30 56 1 51 18
M  V30 57 1 52 18
M  V30 58 1 19 53 CFG=1
M  V30 59 1 54 20
M  V30 60 1 55 20
M  V30 61 1 56 21
M  V30 62 1 22 57 CFG=1
M  V30 63 1 58 23
M  V30 64 1 59 24
M  V30 65 1 60 24
M  V30 66 1 61 25
M  V30 67 1 62 26
M  V30 68 1 63 27
M  V30 69 1 64 27
M  V30 70 1 28 65 CFG=3
M  V30 71 1 66 29
M  V30 72 1 67 29
M  V30 73 1 68 31
M  V30 74 1 69 32
M  V30 75 1 70 32
M  V30 76 1 35 71 CFG=3
M  V30 77 1 72 20
M  V30 END BOND
M  V30 END CTAB
M  END
>  <i_epik_Tot_Q>  (1) 
0

>  <i_epik_Tot_abs_Q>  (1) 
0

>  <i_i_glide_confnum>  (1) 
18

>  <i_i_glide_lignum>  (1) 
42

>  <i_i_glide_posenum>  (1) 
106

>  <i_i_glide_rotatable_bonds>  (1) 
7

>  <i_lp_mmshare_version>  (1) 
72125

>  <i_m_source_file_index>  (1) 
27

>  <i_f3d_flags>  (1) 
0

>  <num_sample>  (1) 
100

>  <b_lp_Chiralities_Consistent>  (1) 
1

>  <r_epik_Charging_Adjusted_Penalty>  (1) 
0

>  <r_epik_Ionization_Penalty>  (1) 
0.044548018534552827

>  <r_epik_Ionization_Penalty_Charging>  (1) 
0

>  <r_epik_Ionization_Penalty_Neutral>  (1) 
0.044548018534552827

>  <r_epik_State_Penalty>  (1) 
-0

>  <r_glide_ring_energy>  (1) 
0

>  <r_i_docking_score>  (1) 
-5.6599734485568405

>  <r_i_glide_ecoul>  (1) 
-1.550944736844484

>  <r_i_glide_eff_state_penalty>  (1) 
-0

>  <r_i_glide_einternal>  (1) 
19.457743669905824

>  <r_i_glide_emodel>  (1) 
-48.52592401200237

>  <r_i_glide_emodel_strain>  (1) 
0

>  <r_i_glide_energy>  (1) 
-46.448666516885496

>  <r_i_glide_erotb>  (1) 
0.5661782271396133

>  <r_i_glide_esite>  (1) 
-0.016101417251152057

>  <r_i_glide_evdw>  (1) 
-44.89772178004101

>  <r_i_glide_gscore>  (1) 
-5.6599734485568405

>  <r_i_glide_gscore_strain>  (1) 
0

>  <r_i_glide_hbond>  (1) 
0

>  <r_i_glide_ligand_efficiency>  (1) 
-0.15297225536640111

>  <r_i_glide_ligand_efficiency_ln>  (1) 
-1.2275155523883561

>  <r_i_glide_ligand_efficiency_sa>  (1) 
-0.50973749202748675

>  <r_i_glide_lipo>  (1) 
-2.8325224589165781

>  <r_i_glide_metal>  (1) 
-0

>  <r_i_glide_rewards>  (1) 
-0.90000000000000002

>  <r_lp_Energy>  (1) 
68.245464999999996

>  <r_lp_tautomer_probability>  (1) 
1

>  <s_epik_cmdline>  (1) 
J2VwaWtfcHl0aG9uJywgJy1waHQnLCAnMS4wJywgJy1waCcsICc3LjQnLCAnLXRuJywgJzgnLCAnLW1hJywgJzUwMCcsICctaW1hZScsICc8aW5maWxlLm1hZT4nLCAnLW9tYWUnLCAnPG91dGZpbGUubWFlPic=

>  <s_epik_input>  (1) 
W0NIXTE9W0NIXVtDSDJdW0NIMl1bQ0BASF0yW0NIMl1bQ0BIXShbQ0gzXSlbQ0hdKFtDQEBIXTNbQ0BIXTEyKVtDQEBIXTNbQ0gyXU9jKGM0W0NIM10pW2NIXVtjSF1jKG40KVtDSDJdYyhbY0hdNSljKEYpW2NIXVtjSF1jNVtOSF1bQ0BIXTZDKD1bQ0gyXSlbTkhdT0MvNj1OXFtIXQ==

>  <s_glide_docking_method>  (1) 
confgen

>  <s_i_glide_gridfile>  (1) 
gpcr_drd2_6luq_protein_autoprepared_prepared

>  <s_lp_Force_Field>  (1) 
S-OPLS

>  <s_lp_Variant>  (1) 
DiffSBDD_26_num_sample_100-2

>  <s_m_source_file>  (1) 
generated__ligand_DiffSBDD_2026-05-06_prepared.sdf

>  <GenAI_Model>  (1) 
DiffSBDD

>  <Protein>  (1) 
generic_title2

$$$$
DiffSBDD_71_num_sample_100
     RDKit          3D

  0  0  0  0  0  0  0  0  0  0999 V3000
M  V30 BEGIN CTAB
M  V30 COUNTS 59 61 0 0 1
M  V30 BEGIN ATOM
M  V30 1 C 5.370982 6.814532 -16.902770 0
M  V30 2 C 11.162254 8.480084 -5.989466 0
M  V30 3 C 4.264245 7.108124 -17.924299 0
M  V30 4 C 5.555810 7.971065 -15.908578 0
M  V30 5 N 7.259425 2.583041 -14.058540 0
M  V30 6 O 8.494622 5.156558 -18.683777 0
M  V30 7 C 7.802838 3.943261 -14.020377 0 CFG=2
M  V30 8 N 9.865484 7.242815 -11.760958 0
M  V30 9 F 11.434834 6.170009 -5.881593 0
M  V30 10 C 10.402615 7.751186 -9.588337 0
M  V30 11 C 7.600984 1.815237 -15.258973 0
M  V30 12 C 7.171928 4.685915 -12.822543 0
M  V30 13 O 7.311691 1.939306 -17.628583 0
M  V30 14 C 9.754426 6.963220 -7.298046 0
M  V30 15 C 9.309860 5.950422 -12.141807 0
M  V30 16 N 6.634887 6.569299 -17.601423 0
M  V30 17 C 10.227301 8.148918 -8.151828 0 CFG=1
M  V30 18 S 7.176720 4.992895 -18.053343 0
M  V30 19 C 11.500249 8.664232 -7.466880 0
M  V30 20 C 10.487424 7.103715 -5.952833 0 CFG=2
M  V30 21 C 11.383343 7.104077 -11.575461 0
M  V30 22 O 6.066754 4.377231 -18.796011 0
M  V30 23 C 7.809948 6.048426 -12.480357 0
M  V30 24 N 11.529235 7.466535 -10.142190 0
M  V30 25 C 7.434953 2.570987 -16.581543 0
M  V30 26 N 9.434837 7.646028 -10.423941 0 CHG=1
M  V30 27 C 7.434871 4.040395 -16.521879 0
M  V30 28 C 7.603386 4.669734 -15.346088 0
M  V30 29 H 5.101885 5.917728 -16.343629 0
M  V30 30 H 12.030026 8.558227 -5.334361 0
M  V30 31 H 10.451529 9.248088 -5.680549 0
M  V30 32 H 3.309997 7.284287 -17.427631 0
M  V30 33 H 4.497824 7.991629 -18.519393 0
M  V30 34 H 4.130013 6.273234 -18.611891 0
M  V30 35 H 4.635194 8.169458 -15.360457 0
M  V30 36 H 6.330657 7.750278 -15.174892 0
M  V30 37 H 5.834767 8.894996 -16.415347 0
M  V30 38 H 7.511369 2.068364 -13.224787 0
M  V30 39 H 8.876228 3.845685 -13.864588 0
M  V30 40 H 6.985077 0.915751 -15.284613 0
M  V30 41 H 8.634987 1.484385 -15.185425 0
M  V30 42 H 6.105250 4.828615 -13.005891 0
M  V30 43 H 7.236177 4.054783 -11.934593 0
M  V30 44 H 8.670839 6.993149 -7.168473 0
M  V30 45 H 9.998049 6.013449 -7.775822 0
M  V30 46 H 9.477183 5.220144 -11.347352 0
M  V30 47 H 9.852030 5.601638 -13.021492 0
M  V30 48 H 7.376411 7.252885 -17.458661 0
M  V30 49 H 9.468813 8.933470 -8.102317 0
M  V30 50 H 12.367156 8.051739 -7.715584 0
M  V30 51 H 11.734274 9.697149 -7.721635 0
M  V30 52 H 9.834847 6.965639 -5.091702 0
M  V30 53 H 11.736652 6.129132 -11.891679 0
M  V30 54 H 12.420301 7.486773 -9.668399 0
M  V30 55 H 7.663158 6.753416 -13.298127 0
M  V30 56 H 7.268030 6.466426 -11.630890 0
M  V30 57 H 11.986904 7.769289 -12.172774 0
M  V30 58 H 7.601154 5.746399 -15.312239 0
M  V30 59 H 8.432025 7.769306 -10.236160 0
M  V30 END ATOM
M  V30 BEGIN BOND
M  V30 1 1 3 1
M  V30 2 1 4 1
M  V30 3 1 7 5
M  V30 4 1 11 5
M  V30 5 1 12 7
M  V30 6 1 15 8
M  V30 7 1 16 1
M  V30 8 1 17 10
M  V30 9 1 17 14
M  V30 10 2 18 6
M  V30 11 1 18 16
M  V30 12 1 19 2
M  V30 13 1 19 17
M  V30 14 1 20 2
M  V30 15 1 20 9
M  V30 16 1 20 14
M  V30 17 1 21 8
M  V30 18 2 22 18
M  V30 19 1 23 12
M  V30 20 1 23 15
M  V30 21 1 24 10
M  V30 22 1 24 21
M  V30 23 1 25 11
M  V30 24 2 25 13
M  V30 25 1 26 8
M  V30 26 2 26 10
M  V30 27 1 27 18
M  V30 28 1 27 25
M  V30 29 1 28 7
M  V30 30 2 28 27
M  V30 31 1 29 1
M  V30 32 1 30 2
M  V30 33 1 31 2
M  V30 34 1 32 3
M  V30 35 1 33 3
M  V30 36 1 34 3
M  V30 37 1 35 4
M  V30 38 1 36 4
M  V30 39 1 37 4
M  V30 40 1 38 5
M  V30 41 1 7 39 CFG=1
M  V30 42 1 40 11
M  V30 43 1 41 11
M  V30 44 1 42 12
M  V30 45 1 43 12
M  V30 46 1 44 14
M  V30 47 1 45 14
M  V30 48 1 46 15
M  V30 49 1 47 15
M  V30 50 1 48 16
M  V30 51 1 17 49 CFG=3
M  V30 52 1 50 19
M  V30 53 1 51 19
M  V30 54 1 20 52 CFG=1
M  V30 55 1 53 21
M  V30 56 1 54 24
M  V30 57 1 55 23
M  V30 58 1 56 23
M  V30 59 1 57 21
M  V30 60 1 58 28
M  V30 61 1 59 26
M  V30 END BOND
M  V30 END CTAB
M  END
>  <i_epik_Tot_Q>  (1) 
1

>  <i_epik_Tot_abs_Q>  (1) 
1

>  <i_i_glide_confnum>  (1) 
487

>  <i_i_glide_lignum>  (1) 
143

>  <i_i_glide_posenum>  (1) 
281

>  <i_i_glide_rotatable_bonds>  (1) 
8

>  <i_lp_mmshare_version>  (1) 
72125

>  <i_m_source_file_index>  (1) 
72

>  <i_f3d_flags>  (1) 
0

>  <num_sample>  (1) 
100

>  <b_lp_Chiralities_Consistent>  (1) 
1

>  <r_epik_Charging_Adjusted_Penalty>  (1) 
1.5363623663438353e-06

>  <r_epik_Ionization_Penalty>  (1) 
0.0003005008715709513

>  <r_epik_Ionization_Penalty_Charging>  (1) 
1.5363623663438353e-06

>  <r_epik_Ionization_Penalty_Neutral>  (1) 
0.00029896450920460744

>  <r_epik_State_Penalty>  (1) 
-0

>  <r_glide_ring_energy>  (1) 
0

>  <r_i_docking_score>  (1) 
-5.6498417634154166

>  <r_i_glide_ecoul>  (1) 
-4.6859425144167393

>  <r_i_glide_eff_state_penalty>  (1) 
-0

>  <r_i_glide_einternal>  (1) 
10.326356678680725

>  <r_i_glide_emodel>  (1) 
-42.616292699761878

>  <r_i_glide_emodel_strain>  (1) 
0.062174793948670981

>  <r_i_glide_energy>  (1) 
-33.859819575867277

>  <r_i_glide_erotb>  (1) 
0.79707636493019229

>  <r_i_glide_esite>  (1) 
-0.16402865763102079

>  <r_i_glide_evdw>  (1) 
-29.173877061450536

>  <r_i_glide_gscore>  (1) 
-5.6498417634154166

>  <r_i_glide_gscore_strain>  (1) 
0

>  <r_i_glide_hbond>  (1) 
-0.20000000000000001

>  <r_i_glide_ligand_efficiency>  (1) 
-0.20178006297912202

>  <r_i_glide_ligand_efficiency_ln>  (1) 
-1.3041493655586736

>  <r_i_glide_ligand_efficiency_sa>  (1) 
-0.6127231139867787

>  <r_i_glide_lipo>  (1) 
-2.240184343791527

>  <r_i_glide_metal>  (1) 
-0

>  <r_i_glide_rewards>  (1) 
-1.6811198966880228

>  <r_lp_Energy>  (1) 
26.720799

>  <r_lp_tautomer_probability>  (1) 
1

>  <s_epik_Chemistry_Notes>  (1) 
This compound has an imine and may undergo hydrolysis. This compound contains an acetal/aminal-like group ( X-CH(R)-Y where X, Y are N, S, or O) that may be acid/base labile, releasing an aldehyde.

>  <s_epik_cmdline>  (1) 
J2VwaWtfcHl0aG9uJywgJy1waHQnLCAnMS4wJywgJy1waCcsICc3LjQnLCAnLXRuJywgJzgnLCAnLW1hJywgJzUwMCcsICctaW1hZScsICc8aW5maWxlLm1hZT4nLCAnLW9tYWUnLCAnPG91dGZpbGUubWFlPic=

>  <s_epik_input>  (1) 
W0NIM11bQ0hdKFtDSDNdKVtOSF1TKD1PKSg9TylDKD1bQ0hdMSlDKD1PKVtDSDJdW05IXVtDQEBIXTFbQ0gyXVtDSDJdW0NIMl1OMltDSDJdTj1DKFtOSF0yKVtDQEhdM1tDSDJdW0NAQEhdKEYpW0NIMl1bQ0gyXTM=

>  <s_glide_docking_method>  (1) 
confgen

>  <s_i_glide_gridfile>  (1) 
gpcr_drd2_6luq_protein_autoprepared_prepared

>  <s_lp_Force_Field>  (1) 
S-OPLS

>  <s_lp_Variant>  (1) 
DiffSBDD_71_num_sample_100-1

>  <s_m_source_file>  (1) 
generated__ligand_DiffSBDD_2026-05-06_prepared.sdf

>  <GenAI_Model>  (1) 
DiffSBDD

>  <Protein>  (1) 
generic_title2

$$$$
DiffSBDD_44_num_sample_100
     RDKit          3D

  0  0  0  0  0  0  0  0  0  0999 V3000
M  V30 BEGIN CTAB
M  V30 COUNTS 56 58 0 0 1
M  V30 BEGIN ATOM
M  V30 1 C 8.765274 3.794166 -12.219040 0
M  V30 2 C 8.053865 5.018955 -12.846916 0 CFG=1
M  V30 3 C 11.945497 8.905406 -5.040230 0
M  V30 4 C 11.969866 7.072633 -2.914053 0
M  V30 5 C 11.434841 6.697971 -4.135289 0
M  V30 6 C 9.759539 8.478504 -10.504507 0
M  V30 7 C 7.952612 4.827958 -14.355821 0
M  V30 8 N 6.592688 5.077229 -12.523846 0 CFG=1 CHG=1
M  V30 9 C 9.434839 7.445210 -9.456441 0
M  V30 10 C 11.119562 7.702575 -7.665368 0
M  V30 11 O 11.568610 8.831015 -7.852438 0
M  V30 12 C 12.501765 8.346491 -2.736604 0
M  V30 13 N 11.996320 6.169290 -1.891472 0
M  V30 14 C 6.604016 4.385710 -14.858988 0
M  V30 15 N 10.994335 7.098400 -6.496630 0
M  V30 16 C 8.665535 8.635096 -11.595558 0
M  V30 17 O 10.040078 6.368622 -12.589665 0
M  V30 18 C 10.170750 5.567950 -8.058337 0
M  V30 19 C 5.835532 4.287405 -13.532928 0
M  V30 20 N 8.075223 7.374111 -12.063579 0
M  V30 21 C 6.198250 4.808937 -11.117976 0
M  V30 22 C 10.637275 6.840138 -8.809146 0 CFG=1
M  V30 23 C 10.523823 5.769747 -6.592689 0
M  V30 24 C 11.434837 7.593592 -5.222927 0
M  V30 25 C 8.813510 6.325311 -12.494639 0
M  V30 26 C 12.491836 9.255691 -3.794512 0
M  V30 27 O 8.903804 5.011269 -15.112971 0
M  V30 28 H 9.784054 3.690171 -12.596154 0
M  V30 29 H 8.841055 3.881931 -11.134535 0
M  V30 30 H 8.247860 2.859810 -12.441218 0
M  V30 31 H 11.969687 9.618519 -5.840617 0
M  V30 32 H 11.055202 5.699002 -4.250383 0
M  V30 33 H 9.909773 9.369295 -9.891674 0
M  V30 34 H 10.711797 8.241843 -10.978271 0
M  V30 35 H 8.815635 6.639772 -9.840341 0
M  V30 36 H 8.865571 7.929214 -8.663407 0
M  V30 37 H 12.933593 8.628461 -1.786660 0
M  V30 38 H 12.405123 6.394000 -0.998398 0
M  V30 39 H 11.604432 5.238955 -1.994293 0
M  V30 40 H 6.192696 5.150266 -15.518183 0
M  V30 41 H 6.647890 3.434584 -15.389571 0
M  V30 42 H 7.848867 9.217533 -11.166820 0
M  V30 43 H 9.034830 9.207547 -12.443371 0
M  V30 44 H 9.095518 5.395642 -8.126400 0
M  V30 45 H 10.634743 4.662868 -8.438044 0
M  V30 46 H 4.814068 4.658109 -13.625780 0
M  V30 47 H 5.777593 3.242737 -13.221970 0
M  V30 48 H 7.076669 7.280286 -11.985001 0
M  V30 49 H 6.365775 3.769331 -10.839438 0
M  V30 50 H 6.753852 5.439732 -10.422965 0
M  V30 51 H 5.138668 5.023152 -10.975860 0
M  V30 52 H 11.436679 6.570179 -9.491990 0
M  V30 53 H 11.431302 5.214260 -6.325403 0
M  V30 54 H 9.661874 5.768323 -5.924942 0
M  V30 55 H 12.926279 10.194140 -3.657800 0
M  V30 56 H 6.324511 6.029481 -12.721205 0
M  V30 END ATOM
M  V30 BEGIN BOND
M  V30 1 1 2 1 CFG=1
M  V30 2 2 5 4
M  V30 3 1 7 2
M  V30 4 1 8 2
M  V30 5 1 9 6
M  V30 6 2 11 10
M  V30 7 1 12 4
M  V30 8 1 13 4
M  V30 9 1 14 7
M  V30 10 1 15 10
M  V30 11 1 16 6
M  V30 12 1 19 8
M  V30 13 1 19 14
M  V30 14 1 20 16
M  V30 15 1 21 8
M  V30 16 1 22 9
M  V30 17 1 22 10
M  V30 18 1 22 18
M  V30 19 1 23 15
M  V30 20 1 23 18
M  V30 21 2 24 3
M  V30 22 1 24 5
M  V30 23 1 24 15
M  V30 24 1 25 2
M  V30 25 2 25 17
M  V30 26 1 25 20
M  V30 27 1 26 3
M  V30 28 2 26 12
M  V30 29 2 27 7
M  V30 30 1 28 1
M  V30 31 1 29 1
M  V30 32 1 30 1
M  V30 33 1 31 3
M  V30 34 1 32 5
M  V30 35 1 33 6
M  V30 36 1 34 6
M  V30 37 1 35 9
M  V30 38 1 36 9
M  V30 39 1 37 12
M  V30 40 1 38 13
M  V30 41 1 39 13
M  V30 42 1 40 14
M  V30 43 1 41 14
M  V30 44 1 42 16
M  V30 45 1 43 16
M  V30 46 1 44 18
M  V30 47 1 45 18
M  V30 48 1 46 19
M  V30 49 1 47 19
M  V30 50 1 48 20
M  V30 51 1 49 21
M  V30 52 1 50 21
M  V30 53 1 51 21
M  V30 54 1 22 52 CFG=3
M  V30 55 1 53 23
M  V30 56 1 54 23
M  V30 57 1 55 26
M  V30 58 1 8 56 CFG=3
M  V30 END BOND
M  V30 END CTAB
M  END
>  <i_epik_Tot_Q>  (1) 
1

>  <i_epik_Tot_abs_Q>  (1) 
1

>  <i_i_glide_confnum>  (1) 
74

>  <i_i_glide_lignum>  (1) 
79

>  <i_i_glide_posenum>  (1) 
120

>  <i_i_glide_rotatable_bonds>  (1) 
7

>  <i_lp_mmshare_version>  (1) 
72125

>  <i_m_source_file_index>  (1) 
45

>  <i_f3d_flags>  (1) 
0

>  <num_sample>  (1) 
100

>  <b_lp_Chiralities_Consistent>  (1) 
1

>  <r_epik_Charging_Adjusted_Penalty>  (1) 
0.87787264938008924

>  <r_epik_Ionization_Penalty>  (1) 
0.44040452980928141

>  <r_epik_Ionization_Penalty_Charging>  (1) 
0.43893632469004462

>  <r_epik_Ionization_Penalty_Neutral>  (1) 
0.0014682051192367804

>  <r_epik_State_Penalty>  (1) 
0.43893632469004457

>  <r_glide_ring_energy>  (1) 
0

>  <r_i_docking_score>  (1) 
-5.6480137117031131

>  <r_i_glide_ecoul>  (1) 
-5.0741160881931098

>  <r_i_glide_eff_state_penalty>  (1) 
0.43893632469004457

>  <r_i_glide_einternal>  (1) 
5.8437565234370688

>  <r_i_glide_emodel>  (1) 
-41.033992633836327

>  <r_i_glide_emodel_strain>  (1) 
1.0062144595495681

>  <r_i_glide_energy>  (1) 
-32.025757642453875

>  <r_i_glide_erotb>  (1) 
0.96983297192060391

>  <r_i_glide_esite>  (1) 
-0.0882076855911956

>  <r_i_glide_evdw>  (1) 
-26.951641554260764

>  <r_i_glide_gscore>  (1) 
-6.0869500363931577

>  <r_i_glide_gscore_strain>  (1) 
0

>  <r_i_glide_hbond>  (1) 
0

>  <r_i_glide_ligand_efficiency>  (1) 
-0.20918569302604123

>  <r_i_glide_ligand_efficiency_ln>  (1) 
-1.3147644773011316

>  <r_i_glide_ligand_efficiency_sa>  (1) 
-0.62755707907812375

>  <r_i_glide_lipo>  (1) 
-2.4224751844334378

>  <r_i_glide_metal>  (1) 
-0

>  <r_i_glide_rewards>  (1) 
-2.4374006473471228

>  <r_lp_Energy>  (1) 
25.411044

>  <r_lp_tautomer_probability>  (1) 
0.99995000000000001

>  <s_epik_cmdline>  (1) 
J2VwaWtfcHl0aG9uJywgJy1waHQnLCAnMS4wJywgJy1waCcsICc3LjQnLCAnLXRuJywgJzgnLCAnLW1hJywgJzUwMCcsICctaW1hZScsICc8aW5maWxlLm1hZT4nLCAnLW9tYWUnLCAnPG91dGZpbGUubWFlPic=

>  <s_epik_input>  (1) 
W0NIM11OMVtDSDJdW0NIMl1DKD1PKVtDQEBdMShbQ0gzXSlDKD1PKVtOSF1bQ0gyXVtDSDJdW0NIMl1bQ0BASF0yW0NIMl1bQ0gyXU4oQzI9TyljKFtjSF1bY0hdW2NIXTMpW2NIXWMzW05IMl0=

>  <s_glide_docking_method>  (1) 
confgen

>  <s_i_glide_gridfile>  (1) 
gpcr_drd2_6luq_protein_autoprepared_prepared

>  <s_lp_Force_Field>  (1) 
S-OPLS

>  <s_lp_Variant>  (1) 
DiffSBDD_44_num_sample_100-4

>  <s_m_source_file>  (1) 
generated__ligand_DiffSBDD_2026-05-06_prepared.sdf

>  <GenAI_Model>  (1) 
DiffSBDD

>  <Protein>  (1) 
generic_title2

$$$$
DiffSBDD_55_num_sample_100
     RDKit          3D

  0  0  0  0  0  0  0  0  0  0999 V3000
M  V30 BEGIN CTAB
M  V30 COUNTS 51 54 0 0 1
M  V30 BEGIN ATOM
M  V30 1 O 10.122120 8.025416 -7.153015 0
M  V30 2 C 5.847644 0.139661 -15.003013 0
M  V30 3 C 8.718256 4.922682 -9.840305 0
M  V30 4 C 6.244119 4.171232 -11.610096 0
M  V30 5 C 10.235289 7.130891 -10.841263 0 CFG=2
M  V30 6 C 10.234806 6.914370 -9.324713 0 CFG=1
M  V30 7 S 7.763466 1.899579 -15.843004 0
M  V30 8 C 6.419482 0.763449 -16.281859 0
M  V30 9 C 6.304396 0.987202 -13.826512 0
M  V30 10 C 12.187572 8.969305 -7.258002 0
M  V30 11 N 8.309046 5.481814 -11.152429 0 CFG=2 CHG=1
M  V30 12 C 10.284792 8.248826 -8.554089 0 CFG=2
M  V30 13 C 9.097977 6.001945 -8.844892 0 CFG=2
M  V30 14 C 11.648317 8.950196 -8.678672 0
M  V30 15 C 11.398896 7.875801 -6.564230 0
M  V30 16 C 8.344594 2.258867 -13.180891 0
M  V30 17 C 7.677535 4.494029 -12.092600 0 CFG=1
M  V30 18 C 7.183520 2.190869 -14.154790 0 CFG=1
M  V30 19 C 9.118539 7.767605 -11.634522 0
M  V30 20 O 5.982420 0.715468 -12.671902 0
M  V30 21 O 9.470538 5.369304 -7.653468 0
M  V30 22 C 8.566084 3.250168 -12.291670 0
M  V30 23 C 9.387545 6.285371 -11.780644 0 CFG=1
M  V30 24 H 4.759353 0.080597 -15.036804 0
M  V30 25 H 6.230663 -0.871374 -14.865525 0
M  V30 26 H 9.568917 4.250463 -9.934792 0
M  V30 27 H 7.894931 4.351574 -9.412979 0
M  V30 28 H 5.685761 3.564797 -12.318491 0
M  V30 29 H 6.233920 3.635676 -10.661976 0
M  V30 30 H 5.667956 5.087069 -11.469360 0
M  V30 31 H 11.229262 7.370987 -11.214164 0
M  V30 32 H 11.155623 6.382533 -9.091723 0
M  V30 33 H 5.644949 1.326132 -16.802006 0
M  V30 34 H 6.783725 -0.000853 -16.968699 0
M  V30 35 H 11.954766 9.924995 -6.786210 0
M  V30 36 H 13.267341 8.830034 -7.215105 0
M  V30 37 H 9.475095 8.901129 -8.885466 0
M  V30 38 H 8.234844 6.569301 -8.574196 0
M  V30 39 H 12.329660 8.400293 -9.328209 0
M  V30 40 H 11.556341 9.954692 -9.091650 0
M  V30 41 H 11.362259 7.997175 -5.481427 0
M  V30 42 H 11.808670 6.889368 -6.788325 0
M  V30 43 H 9.038747 1.432837 -13.220670 0
M  V30 44 H 7.581813 4.983790 -13.063098 0
M  V30 45 H 6.583163 3.097525 -14.153892 0
M  V30 46 H 9.410804 8.417851 -12.454509 0
M  V30 47 H 8.234845 8.090539 -11.091775 0
M  V30 48 H 9.566192 6.048551 -6.997626 0
M  V30 49 H 9.434874 3.176490 -11.660800 0
M  V30 50 H 9.843252 5.877182 -12.682400 0
M  V30 51 H 7.585469 6.153605 -10.921042 0
M  V30 END ATOM
M  V30 BEGIN BOND
M  V30 1 1 6 5
M  V30 2 1 8 2
M  V30 3 1 8 7
M  V30 4 1 9 2
M  V30 5 1 11 3
M  V30 6 1 12 1
M  V30 7 1 12 6
M  V30 8 1 13 3
M  V30 9 1 13 6
M  V30 10 1 14 10
M  V30 11 1 14 12
M  V30 12 1 15 1
M  V30 13 1 15 10
M  V30 14 1 17 4
M  V30 15 1 17 11
M  V30 16 1 18 7
M  V30 17 1 18 9
M  V30 18 1 18 16
M  V30 19 1 19 5
M  V30 20 2 20 9
M  V30 21 1 21 13
M  V30 22 2 22 16
M  V30 23 1 22 17
M  V30 24 1 23 5
M  V30 25 1 23 11
M  V30 26 1 23 19
M  V30 27 1 24 2
M  V30 28 1 25 2
M  V30 29 1 26 3
M  V30 30 1 27 3
M  V30 31 1 28 4
M  V30 32 1 29 4
M  V30 33 1 30 4
M  V30 34 1 5 31 CFG=3
M  V30 35 1 6 32 CFG=3
M  V30 36 1 33 8
M  V30 37 1 34 8
M  V30 38 1 35 10
M  V30 39 1 36 10
M  V30 40 1 12 37 CFG=3
M  V30 41 1 13 38 CFG=1
M  V30 42 1 39 14
M  V30 43 1 40 14
M  V30 44 1 41 15
M  V30 45 1 42 15
M  V30 46 1 43 16
M  V30 47 1 17 44 CFG=3
M  V30 48 1 18 45 CFG=3
M  V30 49 1 46 19
M  V30 50 1 47 19
M  V30 51 1 48 21
M  V30 52 1 49 22
M  V30 53 1 23 50 CFG=3
M  V30 54 1 11 51 CFG=1
M  V30 END BOND
M  V30 END CTAB
M  END
>  <i_epik_Tot_Q>  (1) 
1

>  <i_epik_Tot_abs_Q>  (1) 
1

>  <i_i_glide_confnum>  (1) 
134

>  <i_i_glide_lignum>  (1) 
102

>  <i_i_glide_posenum>  (1) 
368

>  <i_i_glide_rotatable_bonds>  (1) 
5

>  <i_lp_mmshare_version>  (1) 
72125

>  <i_m_source_file_index>  (1) 
56

>  <i_f3d_flags>  (1) 
0

>  <num_sample>  (1) 
100

>  <b_lp_Chiralities_Consistent>  (1) 
1

>  <r_epik_Charging_Adjusted_Penalty>  (1) 
0.1887110856522376

>  <r_epik_Ionization_Penalty>  (1) 
0.094355642401006162

>  <r_epik_Ionization_Penalty_Charging>  (1) 
0.094355542826118813

>  <r_epik_Ionization_Penalty_Neutral>  (1) 
9.9574887353862298e-08

>  <r_epik_State_Penalty>  (1) 
0.094355542826118799

>  <r_glide_ring_energy>  (1) 
1.2361918707854085

>  <r_i_docking_score>  (1) 
-5.6466205478263962

>  <r_i_glide_ecoul>  (1) 
-4.957424750046556

>  <r_i_glide_eff_state_penalty>  (1) 
0.094355542826118799

>  <r_i_glide_einternal>  (1) 
5.5584561621857125

>  <r_i_glide_emodel>  (1) 
-50.991728935036768

>  <r_i_glide_emodel_strain>  (1) 
1.0425738850605057

>  <r_i_glide_energy>  (1) 
-38.515571934682342

>  <r_i_glide_erotb>  (1) 
0.49519417565235591

>  <r_i_glide_esite>  (1) 
-0.0394894419297976

>  <r_i_glide_evdw>  (1) 
-33.558147184635786

>  <r_i_glide_gscore>  (1) 
-5.7409760906525147

>  <r_i_glide_gscore_strain>  (1) 
0

>  <r_i_glide_hbond>  (1) 
-0.035214829324173282

>  <r_i_glide_ligand_efficiency>  (1) 
-0.24550524120984332

>  <r_i_glide_ligand_efficiency_ln>  (1) 
-1.3654040491887693

>  <r_i_glide_ligand_efficiency_sa>  (1) 
-0.69818424885716723

>  <r_i_glide_lipo>  (1) 
-1.4867335052922148

>  <r_i_glide_metal>  (1) 
-0

>  <r_i_glide_rewards>  (1) 
-2.2532114180199123

>  <r_lp_Energy>  (1) 
23.901119999999999

>  <r_lp_tautomer_probability>  (1) 
0.99995000000000001

>  <s_epik_cmdline>  (1) 
J2VwaWtfcHl0aG9uJywgJy1waHQnLCAnMS4wJywgJy1waCcsICc3LjQnLCAnLXRuJywgJzgnLCAnLW1hJywgJzUwMCcsICctaW1hZScsICc8aW5maWxlLm1hZT4nLCAnLW9tYWUnLCAnPG91dGZpbGUubWFlPic=

>  <s_epik_input>  (1) 
W0NIMl0xW0NIMl1bQ0gyXU9bQ0BASF0xW0NASF0yW0NASF0oW09IXSlbQ0gyXU4oW0NASF0oW0NASF0yMylbQ0gyXTMpW0NASF0oW0NIM10pL1tDSF09W0NIXVxbQ0BIXTRTW0NIMl1bQ0gyXUM0PU8=

>  <s_glide_docking_method>  (1) 
confgen

>  <s_i_glide_gridfile>  (1) 
gpcr_drd2_6luq_protein_autoprepared_prepared

>  <s_lp_Force_Field>  (1) 
S-OPLS

>  <s_lp_Variant>  (1) 
DiffSBDD_55_num_sample_100-3

>  <s_m_source_file>  (1) 
generated__ligand_DiffSBDD_2026-05-06_prepared.sdf

>  <GenAI_Model>  (1) 
DiffSBDD

>  <Protein>  (1) 
generic_title2

$$$$
DiffSBDD_28_num_sample_100
     RDKit          3D

  0  0  0  0  0  0  0  0  0  0999 V3000
M  V30 BEGIN CTAB
M  V30 COUNTS 43 44 0 0 1
M  V30 BEGIN ATOM
M  V30 1 C 12.332757 8.741185 -2.851767 0
M  V30 2 C 6.773515 5.207888 -10.969604 0
M  V30 3 C 12.155580 8.867838 -4.372857 0
M  V30 4 N 10.356961 6.711837 -7.038830 0
M  V30 5 C 11.507953 6.388715 -2.861440 0
M  V30 6 C 9.998464 6.751836 -8.266461 0
M  V30 7 C 11.145729 6.571704 -4.323613 0
M  V30 8 O 10.010102 7.983193 -10.379211 0
M  V30 9 C 9.175240 5.299341 -10.385906 0
M  V30 10 C 8.385958 6.285314 -12.503330 0
M  V30 11 C 9.179958 5.591438 -8.862847 0
M  V30 12 C 5.544181 5.979988 -11.474416 0
M  V30 13 C 11.410697 8.823262 -7.228752 0
M  V30 14 N 11.067240 8.900743 -8.581045 0
M  V30 15 N 8.047124 5.966617 -11.094510 0 CFG=1 CHG=1
M  V30 16 C 12.651355 7.309422 -2.460991 0
M  V30 17 C 10.350369 7.936377 -9.201889 0
M  V30 18 C 11.071630 7.767805 -6.459460 0
M  V30 19 C 11.434603 7.685672 -5.039555 0
M  V30 20 H 13.150549 9.371036 -2.517050 0
M  V30 21 H 11.435149 9.078988 -2.332295 0
M  V30 22 H 6.852629 4.256974 -11.498189 0
M  V30 23 H 6.607612 4.958582 -9.922622 0
M  V30 24 H 13.139083 8.971295 -4.826918 0
M  V30 25 H 11.617159 9.792532 -4.583685 0
M  V30 26 H 10.632204 6.548057 -2.234837 0
M  V30 27 H 11.837958 5.370737 -2.693275 0
M  V30 28 H 10.634430 5.751001 -4.793122 0
M  V30 29 H 10.141205 5.560671 -10.828041 0
M  V30 30 H 9.088580 4.223619 -10.545039 0
M  V30 31 H 8.493618 5.374304 -13.093510 0
M  V30 32 H 7.621214 6.909776 -12.964848 0
M  V30 33 H 9.322504 6.838225 -12.572648 0
M  V30 34 H 9.545477 4.684579 -8.378355 0
M  V30 35 H 8.163193 5.705844 -8.493260 0
M  V30 36 H 4.635422 5.484818 -11.137290 0
M  V30 37 H 5.512073 6.999056 -11.091566 0
M  V30 38 H 5.507044 6.029300 -12.562411 0
M  V30 39 H 11.963935 9.677977 -6.869929 0
M  V30 40 H 11.356564 9.720172 -9.093598 0
M  V30 41 H 13.550343 6.997366 -2.992290 0
M  V30 42 H 12.863033 7.233944 -1.397219 0
M  V30 43 H 7.886858 6.850089 -10.607511 0
M  V30 END ATOM
M  V30 BEGIN BOND
M  V30 1 1 3 1
M  V30 2 2 6 4
M  V30 3 1 7 5
M  V30 4 1 11 6
M  V30 5 1 11 9
M  V30 6 1 12 2
M  V30 7 1 14 13
M  V30 8 1 15 2
M  V30 9 1 15 9
M  V30 10 1 15 10
M  V30 11 1 16 1
M  V30 12 1 16 5
M  V30 13 1 17 6
M  V30 14 2 17 8
M  V30 15 1 17 14
M  V30 16 1 18 4
M  V30 17 2 18 13
M  V30 18 1 19 3
M  V30 19 2 19 7
M  V30 20 1 19 18
M  V30 21 1 20 1
M  V30 22 1 21 1
M  V30 23 1 22 2
M  V30 24 1 23 2
M  V30 25 1 24 3
M  V30 26 1 25 3
M  V30 27 1 26 5
M  V30 28 1 27 5
M  V30 29 1 28 7
M  V30 30 1 29 9
M  V30 31 1 30 9
M  V30 32 1 31 10
M  V30 33 1 32 10
M  V30 34 1 33 10
M  V30 35 1 34 11
M  V30 36 1 35 11
M  V30 37 1 36 12
M  V30 38 1 37 12
M  V30 39 1 38 12
M  V30 40 1 39 13
M  V30 41 1 40 14
M  V30 42 1 41 16
M  V30 43 1 42 16
M  V30 44 1 15 43 CFG=1
M  V30 END BOND
M  V30 END CTAB
M  END
>  <i_epik_Tot_Q>  (1) 
1

>  <i_epik_Tot_abs_Q>  (1) 
1

>  <i_i_glide_confnum>  (1) 
19

>  <i_i_glide_lignum>  (1) 
47

>  <i_i_glide_posenum>  (1) 
97

>  <i_i_glide_rotatable_bonds>  (1) 
5

>  <i_lp_mmshare_version>  (1) 
72125

>  <i_m_source_file_index>  (1) 
29

>  <i_f3d_flags>  (1) 
0

>  <num_sample>  (1) 
100

>  <b_lp_Chiralities_Consistent>  (1) 
1

>  <r_epik_Charging_Adjusted_Penalty>  (1) 
0.16160378579191387

>  <r_epik_Ionization_Penalty>  (1) 
0.086651210493904285

>  <r_epik_Ionization_Penalty_Charging>  (1) 
0.086651186480528317

>  <r_epik_Ionization_Penalty_Neutral>  (1) 
2.4013375966173516e-08

>  <r_epik_State_Penalty>  (1) 
0.074952599311385565

>  <r_glide_ring_energy>  (1) 
0

>  <r_i_docking_score>  (1) 
-5.6426151148757757

>  <r_i_glide_ecoul>  (1) 
-4.7584739478761389

>  <r_i_glide_eff_state_penalty>  (1) 
0.074952599311385565

>  <r_i_glide_einternal>  (1) 
8.9990753514516797

>  <r_i_glide_emodel>  (1) 
-43.743385861324242

>  <r_i_glide_emodel_strain>  (1) 
2.0622644147044795

>  <r_i_glide_energy>  (1) 
-35.72779916720004

>  <r_i_glide_erotb>  (1) 
1.0307106156986021

>  <r_i_glide_esite>  (1) 
-0.087830018289287035

>  <r_i_glide_evdw>  (1) 
-30.969325219323899

>  <r_i_glide_gscore>  (1) 
-5.7175677141871617

>  <r_i_glide_gscore_strain>  (1) 
0

>  <r_i_glide_hbond>  (1) 
-0.19954855461099841

>  <r_i_glide_ligand_efficiency>  (1) 
-0.29697974288819873

>  <r_i_glide_ligand_efficiency_ln>  (1) 
-1.4305241238814153

>  <r_i_glide_ligand_efficiency_sa>  (1) 
-0.7924612355598889

>  <r_i_glide_lipo>  (1) 
-2.027555137087099

>  <r_i_glide_metal>  (1) 
-0

>  <r_i_glide_rewards>  (1) 
-2.1711072667507647

>  <r_lp_Energy>  (1) 
45.398657999999998

>  <s_epik_cmdline>  (1) 
J2VwaWtfcHl0aG9uJywgJy1waHQnLCAnMS4wJywgJy1waCcsICc3LjQnLCAnLXRuJywgJzgnLCAnLW1hJywgJzUwMCcsICctaW1hZScsICc8aW5maWxlLm1hZT4nLCAnLW9tYWUnLCAnPG91dGZpbGUubWFlPic=

>  <s_epik_input>  (1) 
W0NIMl0xW0NIMl1bQ0gyXVtDSDJdW0NIXT1DMWMoW2NIXVtuSF1jMj1PKW5jMltDSDJdW0NIMl1OKFtDSDNdKVtDSDJdW0NIM10=

>  <s_glide_docking_method>  (1) 
confgen

>  <s_i_glide_gridfile>  (1) 
gpcr_drd2_6luq_protein_autoprepared_prepared

>  <s_lp_Force_Field>  (1) 
S-OPLS

>  <s_lp_Variant>  (1) 
DiffSBDD_28_num_sample_100-1

>  <s_m_source_file>  (1) 
generated__ligand_DiffSBDD_2026-05-06_prepared.sdf

>  <GenAI_Model>  (1) 
DiffSBDD

>  <Protein>  (1) 
generic_title2

$$$$
DiffSBDD_90_num_sample_100
     RDKit          3D

  0  0  0  0  0  0  0  0  0  0999 V3000
M  V30 BEGIN CTAB
M  V30 COUNTS 61 65 0 0 1
M  V30 BEGIN ATOM
M  V30 1 C 6.994628 5.297605 -21.626633 0
M  V30 2 C 7.127081 5.282698 -18.382357 0
M  V30 3 C 11.040171 7.476072 -9.642908 0
M  V30 4 S 6.467066 5.878787 -23.181316 0
M  V30 5 C 6.102557 6.576976 -16.553977 0
M  V30 6 C 5.596052 7.101644 -18.866281 0
M  V30 7 C 5.406605 7.369315 -17.505163 0
M  V30 8 C 9.809161 6.809488 -10.261983 0
M  V30 9 C 9.674545 8.090633 -7.520983 0
M  V30 10 C 12.027490 8.969255 -7.896537 0
M  V30 11 N 9.434843 5.572116 -9.526186 0 CFG=1 CHG=1
M  V30 12 C 8.831624 5.763090 -8.181450 0
M  V30 13 C 7.058109 5.836855 -11.684437 0
M  V30 14 C 7.504560 5.009689 -14.674806 0
M  V30 15 C 6.421091 6.092199 -19.275711 0
M  V30 16 C 8.724793 4.513898 -10.299366 0
M  V30 17 C 5.480939 7.116117 -22.422837 0
M  V30 18 C 4.913243 7.909423 -20.044575 0
M  V30 19 C 5.941838 6.823622 -15.179002 0
M  V30 20 C 9.667981 6.592376 -7.191798 0
M  V30 21 N 5.604199 7.020979 -21.084946 0 CHG=1
M  V30 22 C 4.625592 8.134283 -23.109560 0
M  V30 23 C 10.725298 8.517841 -8.564012 0 CFG=1
M  V30 24 C 7.661858 4.757913 -16.052814 0
M  V30 25 C 6.970247 5.531784 -16.994750 0
M  V30 26 C 6.417788 6.365569 -12.762992 0
M  V30 27 C 8.173386 4.814258 -11.704822 0
M  V30 28 C 6.637963 6.050455 -14.220617 0
M  V30 29 C 6.423215 6.037583 -20.633514 0
M  V30 30 H 7.676276 4.463670 -21.547769 0
M  V30 31 H 7.775452 4.494789 -18.737098 0
M  V30 32 H 11.601770 7.974192 -10.435062 0
M  V30 33 H 11.714860 6.723206 -9.242673 0
M  V30 34 H 4.752097 8.167499 -17.186373 0
M  V30 35 H 10.107984 6.551544 -11.275368 0
M  V30 36 H 8.982057 7.509364 -10.351932 0
M  V30 37 H 8.682535 8.383848 -7.866747 0
M  V30 38 H 9.822299 8.659302 -6.601839 0
M  V30 39 H 12.501907 8.147819 -7.360958 0
M  V30 40 H 12.730327 9.324463 -8.649114 0
M  V30 41 H 11.853185 9.775044 -7.183684 0
M  V30 42 H 7.834843 6.169297 -8.291657 0
M  V30 43 H 8.697207 4.778721 -7.732555 0
M  V30 44 H 6.759118 6.169311 -10.701493 0
M  V30 45 H 8.036589 4.398124 -13.990785 0
M  V30 46 H 7.873096 4.169307 -9.713657 0
M  V30 47 H 9.434813 3.691130 -10.385423 0
M  V30 48 H 3.834842 7.804044 -20.091222 0
M  V30 49 H 5.257387 8.941625 -20.124544 0
M  V30 50 H 5.283712 7.616019 -14.851310 0
M  V30 51 H 9.207608 6.477585 -6.209364 0
M  V30 52 H 10.679127 6.197032 -7.087350 0
M  V30 53 H 5.275855 8.807118 -23.669669 0
M  V30 54 H 3.956773 7.612412 -23.794001 0
M  V30 55 H 10.305798 9.369291 -9.091706 0
M  V30 56 H 8.317662 3.964687 -16.382408 0
M  V30 57 H 5.652262 7.102984 -12.567128 0
M  V30 58 H 7.756183 3.870984 -12.058124 0
M  V30 59 H 8.987544 5.118672 -12.360102 0
M  V30 60 H 4.040101 8.703012 -22.388635 0
M  V30 61 H 10.325138 5.139635 -9.324812 0
M  V30 END ATOM
M  V30 BEGIN BOND
M  V30 1 1 4 1
M  V30 2 2 7 5
M  V30 3 1 7 6
M  V30 4 1 8 3
M  V30 5 1 11 8
M  V30 6 1 12 11
M  V30 7 1 15 2
M  V30 8 2 15 6
M  V30 9 1 16 11
M  V30 10 1 17 4
M  V30 11 1 18 6
M  V30 12 1 19 5
M  V30 13 1 20 9
M  V30 14 1 20 12
M  V30 15 2 21 17
M  V30 16 1 21 18
M  V30 17 1 22 17
M  V30 18 1 23 3
M  V30 19 1 23 9
M  V30 20 1 23 10
M  V30 21 2 24 14
M  V30 22 2 25 2
M  V30 23 1 25 5
M  V30 24 1 25 24
M  V30 25 2 26 13
M  V30 26 1 27 13
M  V30 27 1 27 16
M  V30 28 1 28 14
M  V30 29 2 28 19
M  V30 30 1 28 26
M  V30 31 2 29 1
M  V30 32 1 29 15
M  V30 33 1 29 21
M  V30 34 1 30 1
M  V30 35 1 31 2
M  V30 36 1 32 3
M  V30 37 1 33 3
M  V30 38 1 34 7
M  V30 39 1 35 8
M  V30 40 1 36 8
M  V30 41 1 37 9
M  V30 42 1 38 9
M  V30 43 1 39 10
M  V30 44 1 40 10
M  V30 45 1 41 10
M  V30 46 1 42 12
M  V30 47 1 43 12
M  V30 48 1 44 13
M  V30 49 1 45 14
M  V30 50 1 46 16
M  V30 51 1 47 16
M  V30 52 1 48 18
M  V30 53 1 49 18
M  V30 54 1 50 19
M  V30 55 1 51 20
M  V30 56 1 52 20
M  V30 57 1 53 22
M  V30 58 1 54 22
M  V30 59 1 23 55 CFG=3
M  V30 60 1 56 24
M  V30 61 1 57 26
M  V30 62 1 58 27
M  V30 63 1 59 27
M  V30 64 1 60 22
M  V30 65 1 11 61 CFG=1
M  V30 END BOND
M  V30 END CTAB
M  END
>  <i_epik_Tot_Q>  (1) 
2

>  <i_epik_Tot_abs_Q>  (1) 
2

>  <i_i_glide_confnum>  (1) 
144

>  <i_i_glide_lignum>  (1) 
184

>  <i_i_glide_posenum>  (1) 
390

>  <i_i_glide_rotatable_bonds>  (1) 
4

>  <i_lp_mmshare_version>  (1) 
72125

>  <i_m_source_file_index>  (1) 
91

>  <i_f3d_flags>  (1) 
0

>  <num_sample>  (1) 
100

>  <b_lp_Chiralities_Consistent>  (1) 
1

>  <r_epik_Charging_Adjusted_Penalty>  (1) 
0.0021252633397680827

>  <r_epik_Ionization_Penalty>  (1) 
0.002125263340211697

>  <r_epik_Ionization_Penalty_Charging>  (1) 
0.0021252633397680827

>  <r_epik_Ionization_Penalty_Neutral>  (1) 
4.4361447992621368e-13

>  <r_epik_State_Penalty>  (1) 
-0

>  <r_glide_ring_energy>  (1) 
0.44791120233511678

>  <r_i_docking_score>  (1) 
-5.6416284980126585

>  <r_i_glide_ecoul>  (1) 
-3.9436964811538688

>  <r_i_glide_eff_state_penalty>  (1) 
-0

>  <r_i_glide_einternal>  (1) 
9.2572870903989717

>  <r_i_glide_emodel>  (1) 
-45.605719857077553

>  <r_i_glide_emodel_strain>  (1) 
1.1565297856368062

>  <r_i_glide_energy>  (1) 
-34.413790353392052

>  <r_i_glide_erotb>  (1) 
0.47996519481946287

>  <r_i_glide_esite>  (1) 
-0.037285676486606745

>  <r_i_glide_evdw>  (1) 
-30.470093872238184

>  <r_i_glide_gscore>  (1) 
-5.6416284980126585

>  <r_i_glide_gscore_strain>  (1) 
0

>  <r_i_glide_hbond>  (1) 
0

>  <r_i_glide_ligand_efficiency>  (1) 
-0.19453891372457444

>  <r_i_glide_ligand_efficiency_ln>  (1) 
-1.2917898666896881

>  <r_i_glide_ligand_efficiency_sa>  (1) 
-0.59768517788665754

>  <r_i_glide_lipo>  (1) 
-2.3077514580865657

>  <r_i_glide_metal>  (1) 
-0

>  <r_i_glide_rewards>  (1) 
-1.6614973924739584

>  <r_lp_Energy>  (1) 
49.647815999999999

>  <r_lp_tautomer_probability>  (1) 
1

>  <s_epik_cmdline>  (1) 
J2VwaWtfcHl0aG9uJywgJy1waHQnLCAnMS4wJywgJy1waCcsICc3LjQnLCAnLXRuJywgJzgnLCAnLW1hJywgJzUwMCcsICctaW1hZScsICc8aW5maWxlLm1hZT4nLCAnLW9tYWUnLCAnPG91dGZpbGUubWFlPic=

>  <s_epik_input>  (1) 
W0NIMl09QzFTW0NIXT1DMk4xW0NIMl1jKFtjSF0zKWMyW2NIXWMoYzM0KVtjSF1bY0hdYyhbY0hdNCkvW0NIXT1bQ0hdXFtDSDJdW0NIMl1ONVtDSDJdW0NIMl1bQ0BIXShbQ0gzXSlbQ0gyXVtDSDJdW0NIMl01

>  <s_glide_docking_method>  (1) 
confgen

>  <s_i_glide_gridfile>  (1) 
gpcr_drd2_6luq_protein_autoprepared_prepared

>  <s_lp_Force_Field>  (1) 
S-OPLS

>  <s_lp_Variant>  (1) 
DiffSBDD_90_num_sample_100-4

>  <s_m_source_file>  (1) 
generated__ligand_DiffSBDD_2026-05-06_prepared.sdf

>  <GenAI_Model>  (1) 
DiffSBDD

>  <Protein>  (1) 
generic_title2

$$$$
DiffSBDD_22_num_sample_100
     RDKit          3D

  0  0  0  0  0  0  0  0  0  0999 V3000
M  V30 BEGIN CTAB
M  V30 COUNTS 45 47 0 0 1
M  V30 BEGIN ATOM
M  V30 1 C 9.650331 6.372237 -6.836944 0
M  V30 2 C 11.434839 7.333252 -4.661296 0
M  V30 3 C 9.434837 6.189891 -9.257866 0
M  V30 4 C 4.672049 7.769095 -17.015823 0
M  V30 5 O 9.996218 6.454612 -12.101945 0
M  V30 6 C 12.419864 9.369304 -4.275291 0
M  V30 7 N 11.225173 8.033143 -5.830800 0
M  V30 8 C 8.441099 4.723454 -12.669096 0
M  V30 9 C 10.906484 7.894251 -8.281253 0
M  V30 10 C 9.172106 5.645343 -11.684683 0
M  V30 11 O 12.422857 7.678136 -2.594967 0 CHG=-1
M  V30 12 C 7.348925 5.122505 -16.231754 0
M  V30 13 O 5.503572 5.861620 -18.188418 0
M  V30 14 N 7.981634 5.392272 -13.901267 0
M  V30 15 N 8.851108 5.484762 -10.377734 0
M  V30 16 C 7.554104 4.410140 -14.890365 0
M  V30 17 C 6.498230 7.093585 -14.923997 0
M  V30 18 C 6.870849 6.310664 -13.650050 0
M  V30 19 C 9.084174 5.764485 -7.966415 0
M  V30 20 O 11.080291 6.171652 -4.464123 0
M  V30 21 C 5.565868 6.541257 -17.163782 0
M  V30 22 C 10.585446 7.426292 -6.985119 0
M  V30 23 S 11.869897 9.660400 -5.893633 0
M  V30 24 N 6.412749 6.253639 -16.140519 0
M  V30 25 C 10.341312 7.279738 -9.417428 0
M  V30 26 C 12.158266 8.168928 -3.717224 0
M  V30 27 H 9.362025 6.025656 -5.863253 0
M  V30 28 H 5.262277 8.633499 -16.715951 0
M  V30 29 H 4.205404 7.997808 -17.974155 0
M  V30 30 H 3.876708 7.602758 -16.291653 0
M  V30 31 H 12.953421 10.154558 -3.765519 0
M  V30 32 H 9.152579 3.935553 -12.923289 0
M  V30 33 H 7.598162 4.232635 -12.178603 0
M  V30 34 H 11.606299 8.705732 -8.408473 0
M  V30 35 H 8.305526 5.504941 -16.589713 0
M  V30 36 H 7.031661 4.378671 -16.963081 0
M  V30 37 H 8.165885 4.780243 -10.152524 0
M  V30 38 H 8.323674 3.648117 -15.018807 0
M  V30 39 H 6.644925 3.894282 -14.575029 0
M  V30 40 H 7.248334 7.866285 -15.091628 0
M  V30 41 H 5.571158 7.617052 -14.695221 0
M  V30 42 H 6.003864 5.757341 -13.283588 0
M  V30 43 H 7.128071 7.027651 -12.869059 0
M  V30 44 H 8.383590 4.952337 -7.840882 0
M  V30 45 H 10.613649 7.642888 -10.385864 0
M  V30 END ATOM
M  V30 BEGIN BOND
M  V30 1 1 7 2
M  V30 2 2 10 5
M  V30 3 1 10 8
M  V30 4 1 14 8
M  V30 5 1 15 3
M  V30 6 1 15 10
M  V30 7 1 16 12
M  V30 8 1 16 14
M  V30 9 1 18 14
M  V30 10 1 18 17
M  V30 11 2 19 1
M  V30 12 1 19 3
M  V30 13 2 20 2
M  V30 14 1 21 4
M  V30 15 2 21 13
M  V30 16 1 22 1
M  V30 17 1 22 7
M  V30 18 2 22 9
M  V30 19 1 23 6
M  V30 20 1 23 7
M  V30 21 1 24 12
M  V30 22 1 24 17
M  V30 23 1 24 21
M  V30 24 2 25 3
M  V30 25 1 25 9
M  V30 26 1 26 2
M  V30 27 2 26 6
M  V30 28 1 26 11
M  V30 29 1 27 1
M  V30 30 1 28 4
M  V30 31 1 29 4
M  V30 32 1 30 4
M  V30 33 1 31 6
M  V30 34 1 32 8
M  V30 35 1 33 8
M  V30 36 1 34 9
M  V30 37 1 35 12
M  V30 38 1 36 12
M  V30 39 1 37 15
M  V30 40 1 38 16
M  V30 41 1 39 16
M  V30 42 1 40 17
M  V30 43 1 41 17
M  V30 44 1 42 18
M  V30 45 1 43 18
M  V30 46 1 44 19
M  V30 47 1 45 25
M  V30 END BOND
M  V30 END CTAB
M  END
>  <i_epik_Tot_Q>  (1) 
-1

>  <i_epik_Tot_abs_Q>  (1) 
1

>  <i_i_glide_confnum>  (1) 
1

>  <i_i_glide_lignum>  (1) 
36

>  <i_i_glide_posenum>  (1) 
148

>  <i_i_glide_rotatable_bonds>  (1) 
6

>  <i_lp_mmshare_version>  (1) 
72125

>  <i_m_source_file_index>  (1) 
23

>  <i_f3d_flags>  (1) 
0

>  <num_sample>  (1) 
100

>  <b_lp_Chiralities_Consistent>  (1) 
1

>  <r_epik_Charging_Adjusted_Penalty>  (1) 
0.47379864770937913

>  <r_epik_Ionization_Penalty>  (1) 
0.47380121227694488

>  <r_epik_Ionization_Penalty_Charging>  (1) 
5.626758328864977e-05

>  <r_epik_Ionization_Penalty_Neutral>  (1) 
0.47374494469365624

>  <r_epik_State_Penalty>  (1) 
0.47374238012609049

>  <r_glide_ring_energy>  (1) 
0

>  <r_i_docking_score>  (1) 
-5.6360927151770985

>  <r_i_glide_ecoul>  (1) 
0.28967308250221141

>  <r_i_glide_eff_state_penalty>  (1) 
0.47374238012609049

>  <r_i_glide_einternal>  (1) 
9.4408535052471976

>  <r_i_glide_emodel>  (1) 
-53.275743266392666

>  <r_i_glide_emodel_strain>  (1) 
0.23223073493582547

>  <r_i_glide_energy>  (1) 
-43.12728710337209

>  <r_i_glide_erotb>  (1) 
0.68631235361621001

>  <r_i_glide_esite>  (1) 
-0.04833977171334132

>  <r_i_glide_evdw>  (1) 
-43.416960185874302

>  <r_i_glide_gscore>  (1) 
-6.1098350953031888

>  <r_i_glide_gscore_strain>  (1) 
0

>  <r_i_glide_hbond>  (1) 
0

>  <r_i_glide_ligand_efficiency>  (1) 
-0.21677279673758071

>  <r_i_glide_ligand_efficiency_ln>  (1) 
-1.3236178806307433

>  <r_i_glide_ligand_efficiency_sa>  (1) 
-0.6421885580727531

>  <r_i_glide_lipo>  (1) 
-2.2034616555781614

>  <r_i_glide_metal>  (1) 
-0

>  <r_i_glide_rewards>  (1) 
-2.4169489747095123

>  <r_lp_Energy>  (1) 
63.227018999999999

>  <r_lp_tautomer_probability>  (1) 
1

>  <s_epik_cmdline>  (1) 
J2VwaWtfcHl0aG9uJywgJy1waHQnLCAnMS4wJywgJy1waCcsICc3LjQnLCAnLXRuJywgJzgnLCAnLW1hJywgJzUwMCcsICctaW1hZScsICc8aW5maWxlLm1hZT4nLCAnLW9tYWUnLCAnPG91dGZpbGUubWFlPic=

>  <s_epik_input>  (1) 
Tz1DMVtDSDJdU04oQzE9TyljKFtjSF1bY0hdMilbY0hdW2NIXWMyW05IXUMoPU8pW0NIMl1OM1tDSDJdW0NIMl1OKFtDSDJdW0NIMl0zKUMoPU8pW0NIM10=

>  <s_glide_docking_method>  (1) 
confgen

>  <s_i_glide_gridfile>  (1) 
gpcr_drd2_6luq_protein_autoprepared_prepared

>  <s_lp_Force_Field>  (1) 
S-OPLS

>  <s_lp_Variant>  (1) 
DiffSBDD_22_num_sample_100-2

>  <s_m_source_file>  (1) 
generated__ligand_DiffSBDD_2026-05-06_prepared.sdf

>  <GenAI_Model>  (1) 
DiffSBDD

>  <Protein>  (1) 
generic_title2

$$$$
DiffSBDD_57_num_sample_100
     RDKit          3D

  0  0  0  0  0  0  0  0  0  0999 V3000
M  V30 BEGIN CTAB
M  V30 COUNTS 57 57 0 0 1
M  V30 BEGIN ATOM
M  V30 1 O 6.027583 4.556792 -13.398868 0 CHG=-1
M  V30 2 C 12.393123 8.048941 -3.891735 0 CFG=2
M  V30 3 O 10.636272 6.169296 -13.061554 0
M  V30 4 C 9.637503 8.160741 -10.462700 0
M  V30 5 C 11.231185 6.743017 -1.943712 0
M  V30 6 O 6.638636 5.259329 -15.770864 0
M  V30 7 C 9.009640 5.767160 -11.393770 0 CFG=2
M  V30 8 C 11.365909 7.472293 -4.872456 0
M  V30 9 C 9.803799 6.630657 -10.362913 0 CFG=2
M  V30 10 C 9.603738 6.033219 -8.954129 0
M  V30 11 C 10.946434 8.089966 -5.991124 0
M  V30 12 C 11.834835 8.088526 -2.442002 0 CFG=1
M  V30 13 C 9.239390 6.170141 -12.861679 0 CFG=2
M  V30 14 C 11.484208 9.433416 -6.427579 0
M  V30 15 P 6.808783 5.420911 -14.310269 0
M  V30 16 O 7.636861 5.769283 -11.066604 0
M  V30 17 C 12.888598 9.632319 -5.878927 0
M  V30 18 C 8.656247 5.245475 -13.956667 0
M  V30 19 C 6.416059 7.209600 -13.939999 0
M  V30 20 C 10.591715 6.550539 -7.910171 0
M  V30 21 C 9.916155 7.473307 -6.897757 0
M  V30 22 N 12.847120 8.569314 -1.491639 0 CHG=1
M  V30 23 C 12.862832 9.452565 -4.351444 0
M  V30 24 F 10.234998 6.968952 -1.091637 0
M  V30 25 H 13.242542 7.370446 -3.891678 0
M  V30 26 H 10.943077 5.273821 -13.171104 0
M  V30 27 H 8.635089 8.516644 -10.292860 0
M  V30 28 H 10.277254 8.670436 -9.744486 0
M  V30 29 H 9.930745 8.517359 -11.448884 0
M  V30 30 H 10.740806 6.145642 -2.701967 0
M  V30 31 H 11.971462 6.083682 -1.491670 0
M  V30 32 H 9.335768 4.730302 -11.294499 0
M  V30 33 H 10.957405 6.506817 -4.635889 0
M  V30 34 H 10.862326 6.569276 -10.590002 0
M  V30 35 H 8.575606 6.172997 -8.614577 0
M  V30 36 H 9.732962 4.952465 -9.014556 0
M  V30 37 H 11.067885 8.864295 -2.389718 0
M  V30 38 H 8.887879 7.188183 -13.015564 0
M  V30 39 H 11.517019 9.474177 -7.517136 0
M  V30 40 H 10.808166 10.221187 -6.091430 0
M  V30 41 H 7.435102 6.571084 -10.580455 0
M  V30 42 H 13.266531 10.588800 -6.173665 0
M  V30 43 H 13.573881 8.969310 -6.395743 0
M  V30 44 H 9.171950 5.437177 -14.898191 0
M  V30 45 H 8.875762 4.206394 -13.707337 0
M  V30 46 H 6.455039 7.408268 -12.870654 0
M  V30 47 H 7.107612 7.880892 -14.446376 0
M  V30 48 H 5.412436 7.455176 -14.281539 0
M  V30 49 H 11.024228 5.703386 -7.375394 0
M  V30 50 H 11.431287 7.054644 -8.390224 0
M  V30 51 H 9.343458 8.259412 -7.394406 0
M  V30 52 H 9.200913 6.903567 -6.303812 0
M  V30 53 H 13.622760 7.928980 -1.456036 0
M  V30 54 H 13.177934 9.492158 -1.756023 0
M  V30 55 H 12.142500 10.168996 -3.966006 0
M  V30 56 H 13.822259 9.736067 -3.924782 0
M  V30 57 H 12.420345 8.641506 -0.579044 0
M  V30 END ATOM
M  V30 BEGIN BOND
M  V30 1 1 8 2
M  V30 2 1 9 4
M  V30 3 1 9 7
M  V30 4 1 10 9
M  V30 5 2 11 8
M  V30 6 1 12 2
M  V30 7 1 12 5
M  V30 8 1 13 3
M  V30 9 1 13 7
M  V30 10 1 14 11
M  V30 11 1 15 1
M  V30 12 2 15 6
M  V30 13 1 16 7
M  V30 14 1 17 14
M  V30 15 1 18 13
M  V30 16 1 18 15
M  V30 17 1 19 15
M  V30 18 1 20 10
M  V30 19 1 21 11
M  V30 20 1 21 20
M  V30 21 1 22 12
M  V30 22 1 23 2
M  V30 23 1 23 17
M  V30 24 1 24 5
M  V30 25 1 2 25 CFG=1
M  V30 26 1 26 3
M  V30 27 1 27 4
M  V30 28 1 28 4
M  V30 29 1 29 4
M  V30 30 1 30 5
M  V30 31 1 31 5
M  V30 32 1 7 32 CFG=3
M  V30 33 1 33 8
M  V30 34 1 9 34 CFG=3
M  V30 35 1 35 10
M  V30 36 1 36 10
M  V30 37 1 12 37 CFG=3
M  V30 38 1 13 38 CFG=1
M  V30 39 1 39 14
M  V30 40 1 40 14
M  V30 41 1 41 16
M  V30 42 1 42 17
M  V30 43 1 43 17
M  V30 44 1 44 18
M  V30 45 1 45 18
M  V30 46 1 46 19
M  V30 47 1 47 19
M  V30 48 1 48 19
M  V30 49 1 49 20
M  V30 50 1 50 20
M  V30 51 1 51 21
M  V30 52 1 52 21
M  V30 53 1 53 22
M  V30 54 1 54 22
M  V30 55 1 55 23
M  V30 56 1 56 23
M  V30 57 1 57 22
M  V30 END BOND
M  V30 END CTAB
M  END
>  <i_epik_Tot_Q>  (1) 
0

>  <i_epik_Tot_abs_Q>  (1) 
2

>  <i_i_glide_confnum>  (1) 
773

>  <i_i_glide_lignum>  (1) 
115

>  <i_i_glide_posenum>  (1) 
13

>  <i_i_glide_rotatable_bonds>  (1) 
12

>  <i_lp_mmshare_version>  (1) 
72125

>  <i_m_source_file_index>  (1) 
58

>  <i_f3d_flags>  (1) 
0

>  <num_sample>  (1) 
100

>  <b_lp_Chiralities_Consistent>  (1) 
1

>  <r_epik_Charging_Adjusted_Penalty>  (1) 
0.062298349578367884

>  <r_epik_Ionization_Penalty>  (1) 
0.031162850121694747

>  <r_epik_Ionization_Penalty_Charging>  (1) 
0.031162474360832908

>  <r_epik_Ionization_Penalty_Neutral>  (1) 
3.7576086184060383e-07

>  <r_epik_State_Penalty>  (1) 
0.031135875217534977

>  <r_glide_ring_energy>  (1) 
0

>  <r_i_docking_score>  (1) 
-5.6338828588130063

>  <r_i_glide_ecoul>  (1) 
-7.3727004412917596

>  <r_i_glide_eff_state_penalty>  (1) 
0.031135875217534977

>  <r_i_glide_einternal>  (1) 
10.275378891507323

>  <r_i_glide_emodel>  (1) 
-34.495393188447238

>  <r_i_glide_emodel_strain>  (1) 
2.0220548438834385

>  <r_i_glide_energy>  (1) 
-29.320432151119604

>  <r_i_glide_erotb>  (1) 
1.1523900364963153

>  <r_i_glide_esite>  (1) 
0

>  <r_i_glide_evdw>  (1) 
-21.947731709827845

>  <r_i_glide_gscore>  (1) 
-5.6650187340305411

>  <r_i_glide_gscore_strain>  (1) 
0

>  <r_i_glide_hbond>  (1) 
-0.45599999999999996

>  <r_i_glide_ligand_efficiency>  (1) 
-0.23474511911720861

>  <r_i_glide_ligand_efficiency_ln>  (1) 
-1.3484466901528218

>  <r_i_glide_ligand_efficiency_sa>  (1) 
-0.67712209435711102

>  <r_i_glide_lipo>  (1) 
-2.4604488922398917

>  <r_i_glide_metal>  (1) 
-0

>  <r_i_glide_rewards>  (1) 
-1.697668226601809

>  <r_lp_Energy>  (1) 
9.4265720000000002

>  <s_epik_cmdline>  (1) 
J2VwaWtfcHl0aG9uJywgJy1waHQnLCAnMS4wJywgJy1waCcsICc3LjQnLCAnLXRuJywgJzgnLCAnLW1hJywgJzUwMCcsICctaW1hZScsICc8aW5maWxlLm1hZT4nLCAnLW9tYWUnLCAnPG91dGZpbGUubWFlPic=

>  <s_epik_input>  (1) 
W09IXVtQQF0oPU8pKFtDSDNdKVtDSDJdW0NASF0oW09IXSlbQ0BIXShbT0hdKVtDQEBIXShbQ0gzXSlbQ0gyXVtDSDJdW0NIMl1DKFtDSDJdW0NIMl1bQ0gyXTEpPVtDSF1bQ0BASF0xW0NAQEhdKFtDSDJdRilbTkgyXQ==

>  <s_glide_docking_method>  (1) 
confgen

>  <s_i_glide_gridfile>  (1) 
gpcr_drd2_6luq_protein_autoprepared_prepared

>  <s_lp_Force_Field>  (1) 
S-OPLS

>  <s_lp_Variant>  (1) 
DiffSBDD_57_num_sample_100-1

>  <s_m_source_file>  (1) 
generated__ligand_DiffSBDD_2026-05-06_prepared.sdf

>  <GenAI_Model>  (1) 
DiffSBDD

>  <Protein>  (1) 
generic_title2

$$$$
DiffSBDD_90_num_sample_100
     RDKit          3D

  0  0  0  0  0  0  0  0  0  0999 V3000
M  V30 BEGIN CTAB
M  V30 COUNTS 61 65 0 0 1
M  V30 BEGIN ATOM
M  V30 1 C 11.434839 9.554160 -6.505982 0
M  V30 2 C 10.233692 8.205620 -9.263174 0
M  V30 3 C 5.391803 -0.967263 -16.473935 0
M  V30 4 S 11.863113 9.544231 -4.818982 0
M  V30 5 C 9.434619 5.956359 -9.912293 0
M  V30 6 C 10.225357 6.385171 -7.664221 0
M  V30 7 C 9.704264 5.487797 -8.603334 0
M  V30 8 C 5.881991 -0.004227 -15.369281 0
M  V30 9 C 6.960670 -0.681183 -18.498367 0
M  V30 10 C 4.472594 -0.908752 -18.863398 0
M  V30 11 N 7.358779 0.150025 -15.257970 0 CFG=1 CHG=1
M  V30 12 C 8.025782 0.585797 -16.514264 0
M  V30 13 C 7.851963 3.335841 -13.074653 0
M  V30 14 C 8.862800 6.905342 -12.499746 0
M  V30 15 C 10.480483 7.685142 -7.987597 0
M  V30 16 C 7.765737 0.973461 -14.080537 0
M  V30 17 C 11.457646 7.852676 -4.691669 0
M  V30 18 C 10.562715 6.014857 -6.177416 0
M  V30 19 C 8.913334 5.078122 -10.884729 0
M  V30 20 C 8.144957 -0.563356 -17.524539 0
M  V30 21 N 11.009247 7.416897 -5.875385 0 CHG=1
M  V30 22 C 11.586781 6.972122 -3.486553 0
M  V30 23 C 5.564483 -0.406316 -17.903524 0 CFG=1
M  V30 24 C 9.400150 7.784973 -11.538777 0
M  V30 25 C 9.693743 7.323164 -10.246425 0
M  V30 26 C 8.086150 4.651879 -13.238642 0
M  V30 27 C 7.286884 2.442161 -14.160302 0
M  V30 28 C 8.628131 5.550360 -12.189917 0
M  V30 29 C 10.974992 8.324801 -6.876954 0
M  V30 30 H 11.536450 10.448415 -7.091541 0
M  V30 31 H 10.432510 9.242009 -9.491275 0
M  V30 32 H 4.325735 -1.120903 -16.296333 0
M  V30 33 H 5.837583 -1.957528 -16.376520 0
M  V30 34 H 9.510870 4.460377 -8.334911 0
M  V30 35 H 5.502493 -0.354272 -14.407175 0
M  V30 36 H 5.434612 0.968670 -15.545869 0
M  V30 37 H 7.115134 0.012015 -19.326012 0
M  V30 38 H 6.986922 -1.677090 -18.943310 0
M  V30 39 H 4.488552 -1.994843 -18.966627 0
M  V30 40 H 3.480757 -0.623739 -18.513851 0
M  V30 41 H 4.598055 -0.477278 -19.857984 0
M  V30 42 H 7.533678 1.454909 -16.953147 0
M  V30 43 H 9.033752 0.917095 -16.275926 0
M  V30 44 H 8.064133 2.866568 -12.136193 0
M  V30 45 H 8.633814 7.271005 -13.487473 0
M  V30 46 H 8.851028 0.941120 -13.977746 0
M  V30 47 H 7.372041 0.512663 -13.171425 0
M  V30 48 H 9.700313 5.769528 -5.563810 0
M  V30 49 H 11.431486 5.369347 -6.077250 0
M  V30 50 H 8.731767 4.049711 -10.626403 0
M  V30 51 H 9.049481 -0.422316 -18.117108 0
M  V30 52 H 8.298221 -1.507344 -16.999482 0
M  V30 53 H 10.625371 6.546529 -3.230331 0
M  V30 54 H 12.234838 6.142227 -3.735447 0
M  V30 55 H 5.433458 0.675715 -17.849362 0
M  V30 56 H 9.576309 8.814431 -11.798168 0
M  V30 57 H 7.869803 5.106774 -14.194723 0
M  V30 58 H 6.204086 2.479792 -14.058514 0
M  V30 59 H 7.526979 2.888885 -15.124333 0
M  V30 60 H 11.986828 7.545534 -2.649265 0
M  V30 61 H 7.709874 -0.782589 -15.070605 0
M  V30 END ATOM
M  V30 BEGIN BOND
M  V30 1 1 4 1
M  V30 2 2 7 5
M  V30 3 1 7 6
M  V30 4 1 8 3
M  V30 5 1 11 8
M  V30 6 1 12 11
M  V30 7 1 15 2
M  V30 8 2 15 6
M  V30 9 1 16 11
M  V30 10 1 17 4
M  V30 11 1 18 6
M  V30 12 1 19 5
M  V30 13 1 20 9
M  V30 14 1 20 12
M  V30 15 2 21 17
M  V30 16 1 21 18
M  V30 17 1 22 17
M  V30 18 1 23 3
M  V30 19 1 23 9
M  V30 20 1 23 10
M  V30 21 2 24 14
M  V30 22 2 25 2
M  V30 23 1 25 5
M  V30 24 1 25 24
M  V30 25 2 26 13
M  V30 26 1 27 13
M  V30 27 1 27 16
M  V30 28 1 28 14
M  V30 29 2 28 19
M  V30 30 1 28 26
M  V30 31 2 29 1
M  V30 32 1 29 15
M  V30 33 1 29 21
M  V30 34 1 30 1
M  V30 35 1 31 2
M  V30 36 1 32 3
M  V30 37 1 33 3
M  V30 38 1 34 7
M  V30 39 1 35 8
M  V30 40 1 36 8
M  V30 41 1 37 9
M  V30 42 1 38 9
M  V30 43 1 39 10
M  V30 44 1 40 10
M  V30 45 1 41 10
M  V30 46 1 42 12
M  V30 47 1 43 12
M  V30 48 1 44 13
M  V30 49 1 45 14
M  V30 50 1 46 16
M  V30 51 1 47 16
M  V30 52 1 48 18
M  V30 53 1 49 18
M  V30 54 1 50 19
M  V30 55 1 51 20
M  V30 56 1 52 20
M  V30 57 1 53 22
M  V30 58 1 54 22
M  V30 59 1 23 55 CFG=1
M  V30 60 1 56 24
M  V30 61 1 57 26
M  V30 62 1 58 27
M  V30 63 1 59 27
M  V30 64 1 60 22
M  V30 65 1 11 61 CFG=1
M  V30 END BOND
M  V30 END CTAB
M  END
>  <i_epik_Tot_Q>  (1) 
2

>  <i_epik_Tot_abs_Q>  (1) 
2

>  <i_i_glide_confnum>  (1) 
4

>  <i_i_glide_lignum>  (1) 
182

>  <i_i_glide_posenum>  (1) 
211

>  <i_i_glide_rotatable_bonds>  (1) 
4

>  <i_lp_mmshare_version>  (1) 
72125

>  <i_m_source_file_index>  (1) 
91

>  <i_f3d_flags>  (1) 
0

>  <num_sample>  (1) 
100

>  <b_lp_Chiralities_Consistent>  (1) 
1

>  <r_epik_Charging_Adjusted_Penalty>  (1) 
0.0021252633397680827

>  <r_epik_Ionization_Penalty>  (1) 
0.002125263340211697

>  <r_epik_Ionization_Penalty_Charging>  (1) 
0.0021252633397680827

>  <r_epik_Ionization_Penalty_Neutral>  (1) 
4.4361447992621368e-13

>  <r_epik_State_Penalty>  (1) 
-0

>  <r_glide_ring_energy>  (1) 
0

>  <r_i_docking_score>  (1) 
-5.6318880311992618

>  <r_i_glide_ecoul>  (1) 
-1.1333131397389336

>  <r_i_glide_eff_state_penalty>  (1) 
-0

>  <r_i_glide_einternal>  (1) 
1.1311861353154598

>  <r_i_glide_emodel>  (1) 
-46.791418109884383

>  <r_i_glide_emodel_strain>  (1) 
0.03804210429655086

>  <r_i_glide_energy>  (1) 
-33.733480930223692

>  <r_i_glide_erotb>  (1) 
0.47996519481946287

>  <r_i_glide_esite>  (1) 
-0.0047980667650379533

>  <r_i_glide_evdw>  (1) 
-32.600167790484761

>  <r_i_glide_gscore>  (1) 
-5.6318880311992618

>  <r_i_glide_gscore_strain>  (1) 
0

>  <r_i_glide_hbond>  (1) 
0

>  <r_i_glide_ligand_efficiency>  (1) 
-0.19420303555859525

>  <r_i_glide_ligand_efficiency_ln>  (1) 
-1.2895595467863472

>  <r_i_glide_ligand_efficiency_sa>  (1) 
-0.59665325374593914

>  <r_i_glide_lipo>  (1) 
-2.6863360649299297

>  <r_i_glide_metal>  (1) 
-0

>  <r_i_glide_rewards>  (1) 
-1.620713733838679

>  <r_lp_Energy>  (1) 
47.281444999999998

>  <r_lp_tautomer_probability>  (1) 
1

>  <s_epik_cmdline>  (1) 
J2VwaWtfcHl0aG9uJywgJy1waHQnLCAnMS4wJywgJy1waCcsICc3LjQnLCAnLXRuJywgJzgnLCAnLW1hJywgJzUwMCcsICctaW1hZScsICc8aW5maWxlLm1hZT4nLCAnLW9tYWUnLCAnPG91dGZpbGUubWFlPic=

>  <s_epik_input>  (1) 
W0NIMl09QzFTW0NIXT1DMk4xW0NIMl1jKFtjSF0zKWMyW2NIXWMoYzM0KVtjSF1bY0hdYyhbY0hdNClcW0NIXT1bQ0hdXFtDSDJdW0NIMl1ONVtDSDJdW0NIMl1bQ0BIXShbQ0gzXSlbQ0gyXVtDSDJdW0NIMl01

>  <s_glide_docking_method>  (1) 
confgen

>  <s_i_glide_gridfile>  (1) 
gpcr_drd2_6luq_protein_autoprepared_prepared

>  <s_lp_Force_Field>  (1) 
S-OPLS

>  <s_lp_Variant>  (1) 
DiffSBDD_90_num_sample_100-2

>  <s_m_source_file>  (1) 
generated__ligand_DiffSBDD_2026-05-06_prepared.sdf

>  <GenAI_Model>  (1) 
DiffSBDD

>  <Protein>  (1) 
generic_title2

$$$$
DiffSBDD_73_num_sample_100
     RDKit          3D

  0  0  0  0  0  0  0  0  0  0999 V3000
M  V30 BEGIN CTAB
M  V30 COUNTS 42 44 0 0 1
M  V30 BEGIN ATOM
M  V30 1 C 7.005543 6.700646 -12.844982 0 CFG=1
M  V30 2 C 6.000892 6.638040 -18.064885 0
M  V30 3 O 5.834899 7.244126 -12.641139 0 CHG=-1
M  V30 4 C 6.404120 6.394580 -20.348814 0
M  V30 5 C 6.511689 5.018404 -11.058452 0
M  V30 6 C 6.043958 4.392057 -13.460475 0
M  V30 7 N 7.359133 6.169314 -11.491663 0 CFG=1 CHG=1
M  V30 8 C 6.617047 5.950907 -15.370246 0
M  V30 9 C 7.442609 5.465055 -20.139019 0
M  V30 10 C 7.037156 5.704635 -17.762570 0
M  V30 11 N 5.701365 6.965785 -19.346141 0
M  V30 12 C 6.499923 3.881305 -12.091587 0
M  V30 13 C 9.608545 7.244336 -11.090998 0
M  V30 14 C 5.292655 7.214621 -16.989802 0
M  V30 15 C 8.813864 5.939382 -11.267266 0
M  V30 16 C 8.178400 4.870763 -21.274668 0
M  V30 17 C 7.760964 5.116432 -18.816505 0
M  V30 18 C 5.595310 6.876897 -15.657537 0
M  V30 19 C 7.338739 5.367478 -16.426960 0
M  V30 20 C 6.936048 5.558364 -13.916994 0 CFG=1
M  V30 21 N 7.945039 5.135531 -22.487361 0
M  V30 22 H 7.822925 7.338619 -13.176964 0
M  V30 23 H 6.126939 6.689492 -21.350861 0
M  V30 24 H 5.491197 5.370982 -10.900333 0
M  V30 25 H 6.837379 4.649254 -10.085491 0
M  V30 26 H 5.002722 4.711946 -13.418109 0
M  V30 27 H 6.093896 3.577211 -14.183148 0
M  V30 28 H 5.834847 3.086580 -11.753972 0
M  V30 29 H 7.494137 3.440021 -12.175016 0
M  V30 30 H 10.639382 7.029537 -10.810085 0
M  V30 31 H 9.642219 7.842442 -12.000710 0
M  V30 32 H 9.175990 7.860352 -10.301384 0
M  V30 33 H 4.504631 7.924401 -17.192142 0
M  V30 34 H 8.945165 5.358608 -10.353521 0
M  V30 35 H 9.238780 5.337807 -12.070705 0
M  V30 36 H 8.969211 4.160019 -21.018844 0
M  V30 37 H 8.549926 4.407092 -18.610246 0
M  V30 38 H 5.034858 7.328834 -14.858749 0
M  V30 39 H 8.122419 4.654549 -16.215116 0
M  V30 40 H 7.947063 5.152777 -13.968248 0
M  V30 41 H 8.545341 4.635393 -23.127972 0
M  V30 42 H 7.100548 6.919032 -10.846576 0
M  V30 END ATOM
M  V30 BEGIN BOND
M  V30 1 1 3 1
M  V30 2 1 7 1
M  V30 3 1 7 5
M  V30 4 1 9 4
M  V30 5 1 10 2
M  V30 6 1 11 2
M  V30 7 2 11 4
M  V30 8 1 12 5
M  V30 9 1 12 6
M  V30 10 2 14 2
M  V30 11 1 15 7
M  V30 12 1 15 13
M  V30 13 1 16 9
M  V30 14 2 17 9
M  V30 15 1 17 10
M  V30 16 2 18 8
M  V30 17 1 18 14
M  V30 18 1 19 8
M  V30 19 2 19 10
M  V30 20 1 20 1
M  V30 21 1 20 6
M  V30 22 1 20 8
M  V30 23 2 21 16
M  V30 24 1 1 22 CFG=3
M  V30 25 1 23 4
M  V30 26 1 24 5
M  V30 27 1 25 5
M  V30 28 1 26 6
M  V30 29 1 27 6
M  V30 30 1 28 12
M  V30 31 1 29 12
M  V30 32 1 30 13
M  V30 33 1 31 13
M  V30 34 1 32 13
M  V30 35 1 33 14
M  V30 36 1 34 15
M  V30 37 1 35 15
M  V30 38 1 36 16
M  V30 39 1 37 17
M  V30 40 1 38 18
M  V30 41 1 39 19
M  V30 42 1 20 40 CFG=3
M  V30 43 1 41 21
M  V30 44 1 7 42 CFG=1
M  V30 END BOND
M  V30 END CTAB
M  END
>  <i_epik_Tot_Q>  (1) 
0

>  <i_epik_Tot_abs_Q>  (1) 
2

>  <i_i_glide_confnum>  (1) 
9

>  <i_i_glide_lignum>  (1) 
146

>  <i_i_glide_posenum>  (1) 
320

>  <i_i_glide_rotatable_bonds>  (1) 
3

>  <i_lp_mmshare_version>  (1) 
72125

>  <i_m_source_file_index>  (1) 
74

>  <i_f3d_flags>  (1) 
0

>  <num_sample>  (1) 
100

>  <b_lp_Chiralities_Consistent>  (1) 
1

>  <r_epik_Charging_Adjusted_Penalty>  (1) 
0.16727262916870361

>  <r_epik_Ionization_Penalty>  (1) 
0.055388618387316971

>  <r_epik_Ionization_Penalty_Charging>  (1) 
0.05537307808352282

>  <r_epik_Ionization_Penalty_Neutral>  (1) 
1.5540303794148587e-05

>  <r_epik_State_Penalty>  (1) 
0.11189955108518078

>  <r_glide_ring_energy>  (1) 
2.2761646496087313

>  <r_i_docking_score>  (1) 
-5.6223910178142056

>  <r_i_glide_ecoul>  (1) 
-4.0430219190957857

>  <r_i_glide_eff_state_penalty>  (1) 
0.11189955108518078

>  <r_i_glide_einternal>  (1) 
5.5521939180013309

>  <r_i_glide_emodel>  (1) 
-37.416364592568321

>  <r_i_glide_emodel_strain>  (1) 
0.88406883434867467

>  <r_i_glide_energy>  (1) 
-29.035895982210249

>  <r_i_glide_erotb>  (1) 
0.22551580141899327

>  <r_i_glide_esite>  (1) 
-0.11455840387909638

>  <r_i_glide_evdw>  (1) 
-24.992874063114463

>  <r_i_glide_gscore>  (1) 
-5.7342905688993859

>  <r_i_glide_gscore_strain>  (1) 
0

>  <r_i_glide_hbond>  (1) 
-0.20000000000000001

>  <r_i_glide_ligand_efficiency>  (1) 
-0.26773290561020024

>  <r_i_glide_ligand_efficiency_ln>  (1) 
-1.3901248180437669

>  <r_i_glide_ligand_efficiency_sa>  (1) 
-0.7386547861007462

>  <r_i_glide_lipo>  (1) 
-1.7052945843211373

>  <r_i_glide_metal>  (1) 
-0

>  <r_i_glide_rewards>  (1) 
-2.0838563910980539

>  <r_lp_Energy>  (1) 
46.855032999999999

>  <s_epik_Chemistry_Notes>  (1) 
This compound has an imine and may undergo hydrolysis. This compound contains an acetal/aminal-like group ( X-CH(R)-Y where X, Y are N, S, or O) that may be acid/base labile, releasing an aldehyde.

>  <s_epik_cmdline>  (1) 
J2VwaWtfcHl0aG9uJywgJy1waHQnLCAnMS4wJywgJy1waCcsICc3LjQnLCAnLXRuJywgJzgnLCAnLW1hJywgJzUwMCcsICctaW1hZScsICc8aW5maWxlLm1hZT4nLCAnLW9tYWUnLCAnPG91dGZpbGUubWFlPic=

>  <s_epik_input>  (1) 
W09IXVtDQEhdMU4oW0NIMl1bQ0gzXSlbQ0gyXVtDSDJdW0NIMl1bQ0BIXTFjKFtjSF1bY0hdMilbY0hdYyhjMjMpW2NIXWMoW2NIXW4zKS9bQ0hdPU4vW0hd

>  <s_glide_docking_method>  (1) 
confgen

>  <s_i_glide_gridfile>  (1) 
gpcr_drd2_6luq_protein_autoprepared_prepared

>  <s_lp_Force_Field>  (1) 
S-OPLS

>  <s_lp_Variant>  (1) 
DiffSBDD_73_num_sample_100-1

>  <s_m_source_file>  (1) 
generated__ligand_DiffSBDD_2026-05-06_prepared.sdf

>  <GenAI_Model>  (1) 
DiffSBDD

>  <Protein>  (1) 
generic_title2

$$$$
DiffSBDD_28_num_sample_100
     RDKit          3D

  0  0  0  0  0  0  0  0  0  0999 V3000
M  V30 BEGIN CTAB
M  V30 COUNTS 43 44 0 0 1
M  V30 BEGIN ATOM
M  V30 1 C 12.982925 8.372112 -3.199001 0
M  V30 2 C 8.709766 3.729662 -12.158169 0
M  V30 3 C 12.234882 8.782617 -4.471357 0
M  V30 4 N 10.241765 6.661168 -7.038330 0
M  V30 5 C 11.434739 6.421440 -2.850145 0
M  V30 6 C 9.829379 6.715121 -8.251765 0
M  V30 7 C 11.081329 6.570427 -4.326784 0
M  V30 8 O 9.848254 7.878921 -10.394728 0
M  V30 9 C 9.301793 4.954401 -10.124711 0
M  V30 10 C 7.418526 5.740627 -11.533260 0
M  V30 11 C 8.871576 5.650388 -8.803812 0
M  V30 12 C 7.606489 3.004574 -12.948395 0
M  V30 13 C 11.430167 8.695503 -7.324229 0
M  V30 14 N 11.049431 8.757195 -8.665948 0
M  V30 15 N 8.192610 4.571163 -11.042607 0 CFG=1 CHG=1
M  V30 16 C 12.059305 7.673393 -2.217599 0
M  V30 17 C 10.235379 7.838644 -9.228533 0
M  V30 18 C 11.045499 7.687483 -6.510014 0
M  V30 19 C 11.434791 7.631326 -5.089257 0
M  V30 20 H 13.781128 7.675353 -3.454627 0
M  V30 21 H 13.434957 9.244978 -2.728074 0
M  V30 22 H 9.323028 4.332938 -12.830695 0
M  V30 23 H 9.373880 2.966976 -11.749471 0
M  V30 24 H 12.971468 9.192056 -5.159432 0
M  V30 25 H 11.537236 9.589361 -4.242700 0
M  V30 26 H 10.535405 6.146811 -2.298127 0
M  V30 27 H 12.133233 5.591462 -2.757509 0
M  V30 28 H 10.515091 5.767750 -4.761194 0
M  V30 29 H 10.001521 5.535165 -10.718603 0
M  V30 30 H 9.834879 4.049066 -9.838641 0
M  V30 31 H 8.075055 6.515214 -11.930797 0
M  V30 32 H 6.711514 5.473798 -12.316002 0
M  V30 33 H 6.816624 6.169323 -10.736586 0
M  V30 34 H 8.730133 4.880062 -8.044294 0
M  V30 35 H 7.897109 6.115012 -8.877136 0
M  V30 36 H 8.046501 2.263261 -13.616665 0
M  V30 37 H 6.912917 2.478850 -12.291668 0
M  V30 38 H 7.028558 3.686087 -13.571866 0
M  V30 39 H 12.044057 9.524676 -7.011624 0
M  V30 40 H 11.383017 9.535432 -9.214350 0
M  V30 41 H 12.633345 7.397714 -1.334677 0
M  V30 42 H 11.288129 8.368335 -1.886703 0
M  V30 43 H 7.554464 3.996286 -10.511160 0
M  V30 END ATOM
M  V30 BEGIN BOND
M  V30 1 1 3 1
M  V30 2 2 6 4
M  V30 3 1 7 5
M  V30 4 1 11 6
M  V30 5 1 11 9
M  V30 6 1 12 2
M  V30 7 1 14 13
M  V30 8 1 15 2
M  V30 9 1 15 9
M  V30 10 1 15 10
M  V30 11 1 16 1
M  V30 12 1 16 5
M  V30 13 1 17 6
M  V30 14 2 17 8
M  V30 15 1 17 14
M  V30 16 1 18 4
M  V30 17 2 18 13
M  V30 18 1 19 3
M  V30 19 2 19 7
M  V30 20 1 19 18
M  V30 21 1 20 1
M  V30 22 1 21 1
M  V30 23 1 22 2
M  V30 24 1 23 2
M  V30 25 1 24 3
M  V30 26 1 25 3
M  V30 27 1 26 5
M  V30 28 1 27 5
M  V30 29 1 28 7
M  V30 30 1 29 9
M  V30 31 1 30 9
M  V30 32 1 31 10
M  V30 33 1 32 10
M  V30 34 1 33 10
M  V30 35 1 34 11
M  V30 36 1 35 11
M  V30 37 1 36 12
M  V30 38 1 37 12
M  V30 39 1 38 12
M  V30 40 1 39 13
M  V30 41 1 40 14
M  V30 42 1 41 16
M  V30 43 1 42 16
M  V30 44 1 15 43 CFG=1
M  V30 END BOND
M  V30 END CTAB
M  END
>  <i_epik_Tot_Q>  (1) 
1

>  <i_epik_Tot_abs_Q>  (1) 
1

>  <i_i_glide_confnum>  (1) 
61

>  <i_i_glide_lignum>  (1) 
47

>  <i_i_glide_posenum>  (1) 
286

>  <i_i_glide_rotatable_bonds>  (1) 
5

>  <i_lp_mmshare_version>  (1) 
72125

>  <i_m_source_file_index>  (1) 
29

>  <i_f3d_flags>  (1) 
0

>  <num_sample>  (1) 
100

>  <b_lp_Chiralities_Consistent>  (1) 
1

>  <r_epik_Charging_Adjusted_Penalty>  (1) 
0.16160378579191387

>  <r_epik_Ionization_Penalty>  (1) 
0.086651210493904285

>  <r_epik_Ionization_Penalty_Charging>  (1) 
0.086651186480528317

>  <r_epik_Ionization_Penalty_Neutral>  (1) 
2.4013375966173516e-08

>  <r_epik_State_Penalty>  (1) 
0.074952599311385565

>  <r_glide_ring_energy>  (1) 
0.00030344837723515978

>  <r_i_docking_score>  (1) 
-5.6194539741019955

>  <r_i_glide_ecoul>  (1) 
-3.6628803612205174

>  <r_i_glide_eff_state_penalty>  (1) 
0.074952599311385565

>  <r_i_glide_einternal>  (1) 
6.7067120958829012

>  <r_i_glide_emodel>  (1) 
-40.36828892853751

>  <r_i_glide_emodel_strain>  (1) 
3.1661136376890084

>  <r_i_glide_energy>  (1) 
-32.36942098049277

>  <r_i_glide_erotb>  (1) 
1.0307106156986021

>  <r_i_glide_esite>  (1) 
0

>  <r_i_glide_evdw>  (1) 
-28.706540619272253

>  <r_i_glide_gscore>  (1) 
-5.6944065734133815

>  <r_i_glide_gscore_strain>  (1) 
0

>  <r_i_glide_hbond>  (1) 
0

>  <r_i_glide_ligand_efficiency>  (1) 
-0.29576073547905241

>  <r_i_glide_ligand_efficiency_ln>  (1) 
-1.4246522772395704

>  <r_i_glide_ligand_efficiency_sa>  (1) 
-0.78920843417951858

>  <r_i_glide_lipo>  (1) 
-2.4828967239277477

>  <r_i_glide_metal>  (1) 
-0

>  <r_i_glide_rewards>  (1) 
-2.2574613800375456

>  <r_lp_Energy>  (1) 
45.398657999999998

>  <s_epik_cmdline>  (1) 
J2VwaWtfcHl0aG9uJywgJy1waHQnLCAnMS4wJywgJy1waCcsICc3LjQnLCAnLXRuJywgJzgnLCAnLW1hJywgJzUwMCcsICctaW1hZScsICc8aW5maWxlLm1hZT4nLCAnLW9tYWUnLCAnPG91dGZpbGUubWFlPic=

>  <s_epik_input>  (1) 
W0NIMl0xW0NIMl1bQ0gyXVtDSDJdW0NIXT1DMWMoW2NIXVtuSF1jMj1PKW5jMltDSDJdW0NIMl1OKFtDSDNdKVtDSDJdW0NIM10=

>  <s_glide_docking_method>  (1) 
confgen

>  <s_i_glide_gridfile>  (1) 
gpcr_drd2_6luq_protein_autoprepared_prepared

>  <s_lp_Force_Field>  (1) 
S-OPLS

>  <s_lp_Variant>  (1) 
DiffSBDD_28_num_sample_100-1

>  <s_m_source_file>  (1) 
generated__ligand_DiffSBDD_2026-05-06_prepared.sdf

>  <GenAI_Model>  (1) 
DiffSBDD

>  <Protein>  (1) 
generic_title2

$$$$
DiffSBDD_59_num_sample_100
     RDKit          3D

  0  0  0  0  0  0  0  0  0  0999 V3000
M  V30 BEGIN CTAB
M  V30 COUNTS 74 77 0 0 1
M  V30 BEGIN ATOM
M  V30 1 C 8.828797 4.302493 -11.818727 0
M  V30 2 N 10.798452 7.853816 -6.562726 0 CFG=1 CHG=1
M  V30 3 C 11.774470 8.962056 -6.816139 0
M  V30 4 C 9.929655 7.459004 -7.716428 0 CFG=1
M  V30 5 C 6.711422 5.938053 -14.502430 0
M  V30 6 C 8.266889 5.580237 -12.485323 0 CFG=2
M  V30 7 C 4.792015 8.360528 -23.145464 0
M  V30 8 C 5.311134 5.894680 -21.031315 0
M  V30 9 C 8.733693 4.601739 -14.786418 0
M  V30 10 C 4.939603 7.231172 -20.765668 0
M  V30 11 O 11.463737 6.969309 -11.674552 0
M  V30 12 O 3.834846 7.311087 -22.947628 0
M  V30 13 C 5.274260 7.769836 -19.514601 0
M  V30 14 C 8.429876 4.418514 -16.143262 0
M  V30 15 C 11.952102 9.919415 -5.620986 0
M  V30 16 C 7.886452 5.360599 -13.957950 0
M  V30 17 C 6.278877 5.635905 -18.941214 0
M  V30 18 C 6.408390 5.755214 -15.869550 0
M  V30 19 N 5.969091 5.112673 -20.147658 0
M  V30 20 C 11.340694 6.758742 -5.705149 0
M  V30 21 N 9.796987 7.146025 -10.174802 0
M  V30 22 C 5.777904 6.756743 -13.630708 0
M  V30 23 C 9.028363 6.228577 -7.465661 0
M  V30 24 O 9.066924 8.569291 -7.711613 0
M  V30 25 N 7.012507 4.793779 -18.076273 0
M  V30 26 C 10.262729 6.968885 -11.409738 0
M  V30 27 C 7.281300 5.002858 -16.701510 0
M  V30 28 C 12.805647 9.369306 -4.493427 0
M  V30 29 C 5.956901 6.969199 -18.588255 0
M  V30 30 C 9.245109 6.772881 -12.513006 0
M  V30 31 C 11.266806 6.212808 -3.171746 0
M  V30 32 C 4.218077 8.059578 -21.785564 0 CFG=2
M  V30 33 C 11.460387 7.265127 -4.258123 0 CFG=1
M  V30 34 C 10.688049 7.380356 -9.051335 0
M  V30 35 C 12.587654 8.196651 -3.891668 0
M  V30 36 H 8.145758 3.463727 -11.954267 0
M  V30 37 H 9.798335 4.008793 -12.220826 0
M  V30 38 H 8.958068 4.440180 -10.744324 0
M  V30 39 H 12.733152 8.567277 -7.147097 0
M  V30 40 H 11.434873 9.597019 -7.630168 0
M  V30 41 H 7.391994 5.852928 -11.897621 0
M  V30 42 H 4.406510 9.208064 -23.708753 0
M  V30 43 H 5.796992 8.019759 -23.383857 0
M  V30 44 H 5.077070 5.439324 -21.982495 0
M  V30 45 H 9.630054 4.169476 -14.381057 0
M  V30 46 H 5.022644 8.793459 -19.272994 0
M  V30 47 H 9.094043 3.837773 -16.765057 0
M  V30 48 H 12.418528 10.834175 -5.982932 0
M  V30 49 H 10.983481 10.225201 -5.221559 0
M  V30 50 H 5.501800 6.176464 -16.268721 0
M  V30 51 H 10.637098 5.934307 -5.644358 0
M  V30 52 H 12.234837 6.305442 -6.116393 0
M  V30 53 H 8.794890 7.148010 -10.007495 0
M  V30 54 H 5.054133 7.291462 -14.243956 0
M  V30 55 H 5.230828 6.107087 -12.948160 0
M  V30 56 H 6.322266 7.498275 -13.046976 0
M  V30 57 H 9.596525 5.298796 -7.493203 0
M  V30 58 H 8.519209 6.286735 -6.503057 0
M  V30 59 H 8.244006 6.140042 -8.219163 0
M  V30 60 H 8.288339 8.335396 -8.213682 0
M  V30 61 H 7.434067 3.980846 -18.501007 0
M  V30 62 H 13.635970 9.980739 -4.174272 0
M  V30 63 H 6.250387 7.382649 -17.643677 0
M  V30 64 H 8.732234 7.711302 -12.723824 0
M  V30 65 H 9.920556 6.568112 -13.335334 0
M  V30 66 H 11.323601 6.652066 -2.175886 0
M  V30 67 H 10.278346 5.769338 -3.266653 0
M  V30 68 H 12.034371 5.442979 -3.234056 0
M  V30 69 H 3.436866 8.694701 -21.370239 0
M  V30 70 H 10.634846 7.947440 -4.291670 0
M  V30 71 H 11.238364 8.291744 -9.280500 0
M  V30 72 H 11.423812 6.578989 -8.997191 0
M  V30 73 H 13.244854 7.874946 -3.095956 0
M  V30 74 H 10.097727 8.285063 -5.977467 0
M  V30 END ATOM
M  V30 BEGIN BOND
M  V30 1 1 3 2
M  V30 2 1 4 2
M  V30 3 1 6 1
M  V30 4 2 10 8
M  V30 5 1 12 7
M  V30 6 1 13 10
M  V30 7 2 14 9
M  V30 8 1 15 3
M  V30 9 2 16 5
M  V30 10 1 16 6
M  V30 11 1 16 9
M  V30 12 1 18 5
M  V30 13 1 19 8
M  V30 14 2 19 17
M  V30 15 1 20 2
M  V30 16 1 22 5
M  V30 17 1 23 4
M  V30 18 1 4 24 CFG=3
M  V30 19 1 25 17
M  V30 20 2 26 11
M  V30 21 1 26 21
M  V30 22 1 27 14
M  V30 23 2 27 18
M  V30 24 1 27 25
M  V30 25 1 28 15
M  V30 26 2 29 13
M  V30 27 1 29 17
M  V30 28 1 30 6
M  V30 29 1 30 26
M  V30 30 1 32 7
M  V30 31 1 32 10
M  V30 32 1 32 12
M  V30 33 1 33 20
M  V30 34 1 33 31
M  V30 35 1 34 4
M  V30 36 1 34 21
M  V30 37 2 35 28
M  V30 38 1 35 33
M  V30 39 1 36 1
M  V30 40 1 37 1
M  V30 41 1 38 1
M  V30 42 1 39 3
M  V30 43 1 40 3
M  V30 44 1 6 41 CFG=1
M  V30 45 1 42 7
M  V30 46 1 43 7
M  V30 47 1 44 8
M  V30 48 1 45 9
M  V30 49 1 46 13
M  V30 50 1 47 14
M  V30 51 1 48 15
M  V30 52 1 49 15
M  V30 53 1 50 18
M  V30 54 1 51 20
M  V30 55 1 52 20
M  V30 56 1 53 21
M  V30 57 1 54 22
M  V30 58 1 55 22
M  V30 59 1 56 22
M  V30 60 1 57 23
M  V30 61 1 58 23
M  V30 62 1 59 23
M  V30 63 1 60 24
M  V30 64 1 61 25
M  V30 65 1 62 28
M  V30 66 1 63 29
M  V30 67 1 64 30
M  V30 68 1 65 30
M  V30 69 1 66 31
M  V30 70 1 67 31
M  V30 71 1 68 31
M  V30 72 1 32 69 CFG=1
M  V30 73 1 33 70 CFG=1
M  V30 74 1 71 34
M  V30 75 1 72 34
M  V30 76 1 73 35
M  V30 77 1 2 74 CFG=1
M  V30 END BOND
M  V30 END CTAB
M  END
>  <i_epik_Tot_Q>  (1) 
1

>  <i_epik_Tot_abs_Q>  (1) 
1

>  <i_i_glide_confnum>  (1) 
785

>  <i_i_glide_lignum>  (1) 
119

>  <i_i_glide_posenum>  (1) 
342

>  <i_i_glide_rotatable_bonds>  (1) 
11

>  <i_lp_mmshare_version>  (1) 
72125

>  <i_m_source_file_index>  (1) 
60

>  <i_f3d_flags>  (1) 
0

>  <num_sample>  (1) 
100

>  <b_lp_Chiralities_Consistent>  (1) 
1

>  <r_epik_Charging_Adjusted_Penalty>  (1) 
1.3886415501160498

>  <r_epik_Ionization_Penalty>  (1) 
0.71269190361940904

>  <r_epik_Ionization_Penalty_Charging>  (1) 
0.69432077505802503

>  <r_epik_Ionization_Penalty_Neutral>  (1) 
0.018371128561383968

>  <r_epik_State_Penalty>  (1) 
0.69432077505802492

>  <r_glide_ring_energy>  (1) 
0

>  <r_i_docking_score>  (1) 
-5.6127869501228735

>  <r_i_glide_ecoul>  (1) 
-7.2400484978327952

>  <r_i_glide_eff_state_penalty>  (1) 
0.69432077505802492

>  <r_i_glide_einternal>  (1) 
36.923722462255228

>  <r_i_glide_emodel>  (1) 
-32.474319200204022

>  <r_i_glide_emodel_strain>  (1) 
1.5562174032615417

>  <r_i_glide_energy>  (1) 
-38.475586660599518

>  <r_i_glide_erotb>  (1) 
0.88120926584797454

>  <r_i_glide_esite>  (1) 
-0.1701798963625881

>  <r_i_glide_evdw>  (1) 
-31.235538162766726

>  <r_i_glide_gscore>  (1) 
-6.3071077251808987

>  <r_i_glide_gscore_strain>  (1) 
0

>  <r_i_glide_hbond>  (1) 
-0.28843810942999776

>  <r_i_glide_ligand_efficiency>  (1) 
-0.16036534143208211

>  <r_i_glide_ligand_efficiency_ln>  (1) 
-1.2321313046467235

>  <r_i_glide_ligand_efficiency_sa>  (1) 
-0.52456566568037422

>  <r_i_glide_lipo>  (1) 
-3.4785431212787299

>  <r_i_glide_metal>  (1) 
-0

>  <r_i_glide_rewards>  (1) 
-0.60337168114430151

>  <r_lp_Energy>  (1) 
34.238330999999995

>  <r_lp_tautomer_probability>  (1) 
0.99999977220005165

>  <s_epik_cmdline>  (1) 
J2VwaWtfcHl0aG9uJywgJy1waHQnLCAnMS4wJywgJy1waCcsICc3LjQnLCAnLXRuJywgJzgnLCAnLW1hJywgJzUwMCcsICctaW1hZScsICc8aW5maWxlLm1hZT4nLCAnLW9tYWUnLCAnPG91dGZpbGUubWFlPic=

>  <s_epik_input>  (1) 
W0NIMl0xW0NAQEhdKFtDSDNdKVtDSF09W0NIXVtDSDJdW0NIMl1OMVtDQEBdKFtDSDNdKShbT0hdKVtDSDJdW05IXUMoPU8pW0NIMl1bQ0BIXShbQ0gzXSljKGMyW0NIM10pW2NIXVtjSF1jKFtjSF0yKVtOSF1jKFtjSF1bY0hdMyluW2NIXWMzW0NASF00W0NIMl1PNA==

>  <s_glide_docking_method>  (1) 
confgen

>  <s_i_glide_gridfile>  (1) 
gpcr_drd2_6luq_protein_autoprepared_prepared

>  <s_lp_Force_Field>  (1) 
S-OPLS

>  <s_lp_Variant>  (1) 
DiffSBDD_59_num_sample_100-3

>  <s_m_source_file>  (1) 
generated__ligand_DiffSBDD_2026-05-06_prepared.sdf

>  <GenAI_Model>  (1) 
DiffSBDD

>  <Protein>  (1) 
generic_title2

$$$$
DiffSBDD_21_num_sample_100
     RDKit          3D

  0  0  0  0  0  0  0  0  0  0999 V3000
M  V30 BEGIN CTAB
M  V30 COUNTS 68 72 0 0 1
M  V30 BEGIN ATOM
M  V30 1 C 9.444170 5.298065 -15.552595 0
M  V30 2 C 7.119988 5.218432 -12.593500 0
M  V30 3 C 11.541649 9.088117 -4.855726 0
M  V30 4 C 7.606447 2.700526 -15.958765 0 CFG=2
M  V30 5 C 9.150830 6.725805 -6.691670 0
M  V30 6 C 8.527571 6.088709 -10.778680 0
M  V30 7 C 7.834849 2.599576 -14.406217 0
M  V30 8 O 5.034844 4.169304 -12.250372 0
M  V30 9 C 11.247226 6.695422 -4.478868 0
M  V30 10 C 6.634811 1.554722 -16.344596 0
M  V30 11 C 7.537958 6.276606 -13.416128 0
M  V30 12 O 9.034930 5.960369 -9.496318 0
M  V30 13 C 6.670679 2.761944 -13.381782 0
M  V30 14 F 11.360360 10.192611 -5.617183 0
M  V30 15 C 10.066413 6.848223 -9.056869 0
M  V30 16 C 8.207982 3.951022 -18.824104 0
M  V30 17 C 8.893525 7.168703 -11.598255 0
M  V30 18 C 12.402276 8.057462 -2.821077 0
M  V30 19 F 9.215951 4.787904 -18.577955 0
M  V30 20 S 9.090845 2.189788 -16.890745 0
M  V30 21 C 7.099537 6.355610 -14.877480 0
M  V30 22 C 8.372643 7.270775 -12.889919 0
M  V30 23 O 7.163263 4.169301 -10.430133 0
M  V30 24 C 6.126931 4.186383 -13.116393 0 CFG=2
M  V30 25 F 13.034839 8.169319 -1.631555 0
M  V30 26 C 12.222730 9.191472 -3.627114 0
M  V30 27 C 8.659558 2.505333 -18.619409 0
M  V30 28 F 7.860722 4.098873 -20.102486 0
M  V30 29 C 6.985949 4.284809 -17.958829 0
M  V30 30 C 11.921356 6.809127 -3.247647 0
M  V30 31 C 10.263336 7.734383 -6.579862 0 CFG=1
M  V30 32 C 7.200391 4.164283 -16.413176 0 CFG=2
M  V30 33 C 7.934511 5.444262 -15.865745 0 CFG=2
M  V30 34 C 11.036672 7.837644 -5.289572 0
M  V30 35 C 10.343757 6.604235 -7.591745 0 CFG=1
M  V30 36 C 7.602001 5.142168 -11.258348 0
M  V30 37 H 9.665204 5.150547 -14.496874 0
M  V30 38 H 9.927311 4.500327 -16.099091 0
M  V30 39 H 9.993567 6.169305 -15.891666 0
M  V30 40 H 8.234840 7.067027 -7.147491 0
M  V30 41 H 9.019275 5.978676 -5.917553 0
M  V30 42 H 8.633802 3.265337 -14.096168 0
M  V30 43 H 8.244436 1.605145 -14.220272 0
M  V30 44 H 5.395812 4.084771 -11.375029 0
M  V30 45 H 10.873998 5.737036 -4.792934 0
M  V30 46 H 5.834906 1.369956 -15.636356 0
M  V30 47 H 6.171258 1.691036 -17.318447 0
M  V30 48 H 7.149549 0.593653 -16.386971 0
M  V30 49 H 7.028699 2.367874 -12.431294 0
M  V30 50 H 5.839421 2.109223 -13.641046 0
M  V30 51 H 10.983394 6.726058 -9.632458 0
M  V30 52 H 9.733311 7.882567 -9.149519 0
M  V30 53 H 9.566068 7.928850 -11.239149 0
M  V30 54 H 6.022342 6.272613 -15.007954 0
M  V30 55 H 7.273044 7.391712 -15.166479 0
M  V30 56 H 8.634844 8.105446 -13.491666 0
M  V30 57 H 7.448244 4.348562 -9.544441 0
M  V30 58 H 5.632748 4.510191 -14.017324 0
M  V30 59 H 12.597816 10.146611 -3.296715 0
M  V30 60 H 9.528165 2.288578 -19.241431 0
M  V30 61 H 7.875721 1.813296 -18.926355 0
M  V30 62 H 6.625856 5.282356 -18.211384 0
M  V30 63 H 6.175482 3.636540 -18.291430 0
M  V30 64 H 12.063241 5.935290 -2.628332 0
M  V30 65 H 10.031745 8.726295 -6.963550 0
M  V30 66 H 6.234839 4.306226 -15.966539 0
M  V30 67 H 7.960564 6.092474 -16.740097 0
M  V30 68 H 11.007985 5.767745 -7.381186 0
M  V30 END ATOM
M  V30 BEGIN BOND
M  V30 1 1 7 4
M  V30 2 1 4 10 CFG=3
M  V30 3 2 11 2
M  V30 4 1 12 6
M  V30 5 1 13 7
M  V30 6 1 14 3
M  V30 7 1 15 12
M  V30 8 1 17 6
M  V30 9 1 19 16
M  V30 10 1 20 4
M  V30 11 1 21 11
M  V30 12 1 22 11
M  V30 13 2 22 17
M  V30 14 1 24 2
M  V30 15 1 24 8
M  V30 16 1 24 13
M  V30 17 1 25 18
M  V30 18 1 26 3
M  V30 19 2 26 18
M  V30 20 1 27 16
M  V30 21 1 27 20
M  V30 22 1 28 16
M  V30 23 1 29 16
M  V30 24 2 30 9
M  V30 25 1 30 18
M  V30 26 1 31 5
M  V30 27 1 32 4
M  V30 28 1 32 29
M  V30 29 1 33 1
M  V30 30 1 33 21
M  V30 31 1 33 32
M  V30 32 2 34 3
M  V30 33 1 34 9
M  V30 34 1 34 31
M  V30 35 1 35 5
M  V30 36 1 35 15
M  V30 37 1 35 31
M  V30 38 1 36 2
M  V30 39 2 36 6
M  V30 40 1 36 23
M  V30 41 1 37 1
M  V30 42 1 38 1
M  V30 43 1 39 1
M  V30 44 1 40 5
M  V30 45 1 41 5
M  V30 46 1 42 7
M  V30 47 1 43 7
M  V30 48 1 44 8
M  V30 49 1 45 9
M  V30 50 1 46 10
M  V30 51 1 47 10
M  V30 52 1 48 10
M  V30 53 1 49 13
M  V30 54 1 50 13
M  V30 55 1 51 15
M  V30 56 1 52 15
M  V30 57 1 53 17
M  V30 58 1 54 21
M  V30 59 1 55 21
M  V30 60 1 56 22
M  V30 61 1 57 23
M  V30 62 1 24 58 CFG=3
M  V30 63 1 59 26
M  V30 64 1 60 27
M  V30 65 1 61 27
M  V30 66 1 62 29
M  V30 67 1 63 29
M  V30 68 1 64 30
M  V30 69 1 31 65 CFG=3
M  V30 70 1 32 66 CFG=1
M  V30 71 1 33 67 CFG=3
M  V30 72 1 35 68 CFG=3
M  V30 END BOND
M  V30 END CTAB
M  END
>  <i_epik_Tot_Q>  (1) 
0

>  <i_epik_Tot_abs_Q>  (1) 
0

>  <i_i_glide_confnum>  (1) 
15

>  <i_i_glide_lignum>  (1) 
34

>  <i_i_glide_posenum>  (1) 
269

>  <i_i_glide_rotatable_bonds>  (1) 
6

>  <i_lp_mmshare_version>  (1) 
72125

>  <i_m_source_file_index>  (1) 
22

>  <i_f3d_flags>  (1) 
0

>  <num_sample>  (1) 
100

>  <b_lp_Chiralities_Consistent>  (1) 
1

>  <r_epik_Charging_Adjusted_Penalty>  (1) 
0

>  <r_epik_Ionization_Penalty>  (1) 
0.0009051571753108589

>  <r_epik_Ionization_Penalty_Charging>  (1) 
0

>  <r_epik_Ionization_Penalty_Neutral>  (1) 
0.0009051571753108589

>  <r_epik_State_Penalty>  (1) 
-0

>  <r_glide_ring_energy>  (1) 
0

>  <r_i_docking_score>  (1) 
-5.6058108791245651

>  <r_i_glide_ecoul>  (1) 
-1.4069739802809229

>  <r_i_glide_eff_state_penalty>  (1) 
-0

>  <r_i_glide_einternal>  (1) 
4.264593440106081

>  <r_i_glide_emodel>  (1) 
-33.182910727069128

>  <r_i_glide_emodel_strain>  (1) 
3.3006003269991098

>  <r_i_glide_energy>  (1) 
-22.260192264027097

>  <r_i_glide_erotb>  (1) 
0.29906164395455315

>  <r_i_glide_esite>  (1) 
0

>  <r_i_glide_evdw>  (1) 
-20.853218283746173

>  <r_i_glide_gscore>  (1) 
-5.6058108791245651

>  <r_i_glide_gscore_strain>  (1) 
0

>  <r_i_glide_hbond>  (1) 
0

>  <r_i_glide_ligand_efficiency>  (1) 
-0.15571696886457126

>  <r_i_glide_ligand_efficiency_ln>  (1) 
-1.2230364823174047

>  <r_i_glide_ligand_efficiency_sa>  (1) 
-0.51416610260920415

>  <r_i_glide_lipo>  (1) 
-3.2318639926851707

>  <r_i_glide_metal>  (1) 
-0

>  <r_i_glide_rewards>  (1) 
-1.4193015191644998

>  <r_lp_Energy>  (1) 
74.349186000000003

>  <r_lp_tautomer_probability>  (1) 
1

>  <s_epik_cmdline>  (1) 
J2VwaWtfcHl0aG9uJywgJy1waHQnLCAnMS4wJywgJy1waCcsICc3LjQnLCAnLXRuJywgJzgnLCAnLW1hJywgJzUwMCcsICctaW1hZScsICc8aW5maWxlLm1hZT4nLCAnLW9tYWUnLCAnPG91dGZpbGUubWFlPic=

>  <s_epik_input>  (1) 
UzFbQ0gyXUMoRikoRilbQ0gyXVtDQEhdKFtDQEBdMTJbQ0gzXSlbQ0BIXShbQ0gzXSlbQ0gyXWMzYyhbQ0BIXShbT0hdKVtDSDJdW0NIMl0yKWMoW09IXSljKFtjSF1bY0hdMylPW0NIMl1bQ0BASF00W0NIMl1bQ0hdNGM1W2NIXVtjSF1jKEYpW2NIXWM1Rg==

>  <s_glide_docking_method>  (1) 
confgen

>  <s_i_glide_gridfile>  (1) 
gpcr_drd2_6luq_protein_autoprepared_prepared

>  <s_lp_Force_Field>  (1) 
S-OPLS

>  <s_lp_Variant>  (1) 
DiffSBDD_21_num_sample_100-2

>  <s_m_source_file>  (1) 
generated__ligand_DiffSBDD_2026-05-06_prepared.sdf

>  <GenAI_Model>  (1) 
DiffSBDD

>  <Protein>  (1) 
generic_title2

$$$$
DiffSBDD_27_num_sample_100
     RDKit          3D

  0  0  0  0  0  0  0  0  0  0999 V3000
M  V30 BEGIN CTAB
M  V30 COUNTS 57 57 0 0 1
M  V30 BEGIN ATOM
M  V30 1 C 8.086420 4.578777 -16.457479 0 CFG=2
M  V30 2 C 7.960936 6.772713 -12.993344 0
M  V30 3 N 7.434875 3.487261 -15.728385 0
M  V30 4 C 9.668813 8.545503 -8.127518 0
M  V30 5 C 8.692350 4.217458 -18.724066 0
M  V30 6 C 6.195168 6.350073 -14.757654 0
M  V30 7 N 6.200724 6.169255 -11.420831 0 CHG=1
M  V30 8 C 9.188647 6.359785 -10.166921 0
M  V30 9 C 9.810437 7.051232 -7.785201 0
M  V30 10 C 9.282053 6.821862 -6.364852 0
M  V30 11 C 7.447654 5.699089 -12.046349 0 CFG=2
M  V30 12 C 8.479413 5.244525 -10.980120 0
M  V30 13 C 7.112124 5.334151 -17.439892 0
M  V30 14 C 4.925063 8.058826 -15.969264 0
M  V30 15 C 9.195635 3.964841 -17.407288 0
M  V30 16 O 10.222065 3.369740 -17.091721 0
M  V30 17 C 6.179306 6.323561 -17.298779 0
M  V30 18 N 9.034836 6.169442 -8.702132 0 CHG=1
M  V30 19 N 5.776819 6.874936 -16.052082 0
M  V30 20 C 7.603135 4.933089 -18.723955 0
M  V30 21 C 5.498782 6.946737 -18.526059 0
M  V30 22 C 11.294941 6.682476 -7.798100 0
M  V30 23 C 7.408369 7.056822 -14.185658 0
M  V30 24 H 8.550601 5.275599 -15.762450 0
M  V30 25 H 8.825301 7.332694 -12.669246 0
M  V30 26 H 7.034318 2.812804 -16.365887 0
M  V30 27 H 8.107175 2.972731 -15.176604 0
M  V30 28 H 10.099325 8.793968 -9.097761 0
M  V30 29 H 8.634867 8.879946 -8.126759 0
M  V30 30 H 10.191169 9.138923 -7.377131 0
M  V30 31 H 9.185589 3.840113 -19.607531 0
M  V30 32 H 5.375678 6.523876 -14.061413 0
M  V30 33 H 6.289023 5.275886 -14.746844 0
M  V30 34 H 5.568331 6.524061 -12.121975 0
M  V30 35 H 5.757073 5.416379 -10.914799 0
M  V30 36 H 10.241510 6.366079 -10.434495 0
M  V30 37 H 8.810162 7.343296 -10.438843 0
M  V30 38 H 9.354567 5.774204 -6.077251 0
M  V30 39 H 9.835801 7.402758 -5.625580 0
M  V30 40 H 8.234929 7.110789 -6.291644 0
M  V30 41 H 7.180117 4.825723 -12.642599 0
M  V30 42 H 7.999737 4.531550 -10.306738 0
M  V30 43 H 9.253161 4.666331 -11.488785 0
M  V30 44 H 5.381362 8.877376 -16.528416 0
M  V30 45 H 3.924575 7.860887 -16.354869 0
M  V30 46 H 4.807632 8.407373 -14.944387 0
M  V30 47 H 8.058523 6.377468 -8.510119 0
M  V30 48 H 7.104270 5.205136 -19.642113 0
M  V30 49 H 6.239695 7.457104 -19.140754 0
M  V30 50 H 5.061373 6.152227 -19.130944 0
M  V30 51 H 4.691070 7.652242 -18.352885 0
M  V30 52 H 11.742796 6.865631 -8.774772 0
M  V30 53 H 11.852247 7.285319 -7.080266 0
M  V30 54 H 11.434735 5.638265 -7.517743 0
M  V30 55 H 7.834815 7.836781 -14.790289 0
M  V30 56 H 9.223541 5.207965 -8.460742 0
M  V30 57 H 6.418907 6.918824 -10.759565 0
M  V30 END ATOM
M  V30 BEGIN BOND
M  V30 1 1 3 1
M  V30 2 1 9 4
M  V30 3 1 10 9
M  V30 4 1 11 2
M  V30 5 1 11 7
M  V30 6 1 12 8
M  V30 7 1 12 11
M  V30 8 1 13 1
M  V30 9 1 15 1
M  V30 10 1 15 5
M  V30 11 2 16 15
M  V30 12 2 17 13
M  V30 13 1 18 8
M  V30 14 1 18 9
M  V30 15 1 19 6
M  V30 16 1 19 14
M  V30 17 1 19 17
M  V30 18 2 20 5
M  V30 19 1 20 13
M  V30 20 1 21 17
M  V30 21 1 22 9
M  V30 22 2 23 2
M  V30 23 1 23 6
M  V30 24 1 1 24 CFG=1
M  V30 25 1 25 2
M  V30 26 1 26 3
M  V30 27 1 27 3
M  V30 28 1 28 4
M  V30 29 1 29 4
M  V30 30 1 30 4
M  V30 31 1 31 5
M  V30 32 1 32 6
M  V30 33 1 33 6
M  V30 34 1 34 7
M  V30 35 1 35 7
M  V30 36 1 36 8
M  V30 37 1 37 8
M  V30 38 1 38 10
M  V30 39 1 39 10
M  V30 40 1 40 10
M  V30 41 1 11 41 CFG=3
M  V30 42 1 42 12
M  V30 43 1 43 12
M  V30 44 1 44 14
M  V30 45 1 45 14
M  V30 46 1 46 14
M  V30 47 1 47 18
M  V30 48 1 48 20
M  V30 49 1 49 21
M  V30 50 1 50 21
M  V30 51 1 51 21
M  V30 52 1 52 22
M  V30 53 1 53 22
M  V30 54 1 54 22
M  V30 55 1 55 23
M  V30 56 1 56 18
M  V30 57 1 57 7
M  V30 END BOND
M  V30 END CTAB
M  END
>  <i_epik_Tot_Q>  (1) 
2

>  <i_epik_Tot_abs_Q>  (1) 
2

>  <i_i_glide_confnum>  (1) 
414

>  <i_i_glide_lignum>  (1) 
46

>  <i_i_glide_posenum>  (1) 
345

>  <i_i_glide_rotatable_bonds>  (1) 
8

>  <i_lp_mmshare_version>  (1) 
72125

>  <i_m_source_file_index>  (1) 
28

>  <i_f3d_flags>  (1) 
0

>  <num_sample>  (1) 
100

>  <b_lp_Chiralities_Consistent>  (1) 
1

>  <r_epik_Charging_Adjusted_Penalty>  (1) 
0.47954930221194114

>  <r_epik_Ionization_Penalty>  (1) 
0.082650424812652987

>  <r_epik_Ionization_Penalty_Charging>  (1) 
0.068869463259337155

>  <r_epik_Ionization_Penalty_Neutral>  (1) 
0.013780961553315832

>  <r_epik_State_Penalty>  (1) 
0.41067983895260396

>  <r_glide_ring_energy>  (1) 
0

>  <r_i_docking_score>  (1) 
-5.6045610867029607

>  <r_i_glide_ecoul>  (1) 
-9.3384704924320499

>  <r_i_glide_eff_state_penalty>  (1) 
0.41067983895260396

>  <r_i_glide_einternal>  (1) 
13.101518576426436

>  <r_i_glide_emodel>  (1) 
-46.123791038391396

>  <r_i_glide_emodel_strain>  (1) 
0.9850489295515743

>  <r_i_glide_energy>  (1) 
-31.02690552517074

>  <r_i_glide_erotb>  (1) 
0.88107071462136088

>  <r_i_glide_esite>  (1) 
-0.19245281832886724

>  <r_i_glide_evdw>  (1) 
-21.688435032738692

>  <r_i_glide_gscore>  (1) 
-6.015240925655565

>  <r_i_glide_gscore_strain>  (1) 
0

>  <r_i_glide_hbond>  (1) 
-0.36538509347793791

>  <r_i_glide_ligand_efficiency>  (1) 
-0.24367656898708526

>  <r_i_glide_ligand_efficiency_ln>  (1) 
-1.3552336901150146

>  <r_i_glide_ligand_efficiency_sa>  (1) 
-0.69298374830589382

>  <r_i_glide_lipo>  (1) 
-1.3493087423832679

>  <r_i_glide_metal>  (1) 
-0

>  <r_i_glide_rewards>  (1) 
-2.5039726605851094

>  <r_lp_Energy>  (1) 
29.545608999999999

>  <r_lp_tautomer_probability>  (1) 
0.5

>  <s_epik_cmdline>  (1) 
J2VwaWtfcHl0aG9uJywgJy1waHQnLCAnMS4wJywgJy1waCcsICc3LjQnLCAnLXRuJywgJzgnLCAnLW1hJywgJzUwMCcsICctaW1hZScsICc8aW5maWxlLm1hZT4nLCAnLW9tYWUnLCAnPG91dGZpbGUubWFlPic=

>  <s_epik_input>  (1) 
Tz1DMVtDSF09W0NIXUMoXFtDQEhdMVtOSDJdKT1DKFtDSDNdKVxOKFtDSDNdKVtDSDJdL1tDSF09W0NIXVxbQ0BIXShbTkgyXSlbQ0gyXVtDSDJdW05IXUMoW0NIM10pKFtDSDNdKVtDSDNd

>  <s_glide_docking_method>  (1) 
confgen

>  <s_i_glide_gridfile>  (1) 
gpcr_drd2_6luq_protein_autoprepared_prepared

>  <s_lp_Force_Field>  (1) 
S-OPLS

>  <s_lp_Variant>  (1) 
DiffSBDD_27_num_sample_100-4

>  <s_m_source_file>  (1) 
generated__ligand_DiffSBDD_2026-05-06_prepared.sdf

>  <GenAI_Model>  (1) 
DiffSBDD

>  <Protein>  (1) 
generic_title2

$$$$
DiffSBDD_78_num_sample_100
     RDKit          3D

  0  0  0  0  0  0  0  0  0  0999 V3000
M  V30 BEGIN CTAB
M  V30 COUNTS 75 84 0 0 1
M  V30 BEGIN ATOM
M  V30 1 C 8.087817 6.977047 -12.496360 0
M  V30 2 C 10.222132 8.366721 -8.936604 0 CFG=1
M  V30 3 C 6.520585 7.369469 -14.416752 0
M  V30 4 C 10.684974 7.225977 -11.257411 0
M  V30 5 C 8.404440 5.769307 -7.346706 0
M  V30 6 C 10.117931 8.655270 -6.639410 0 CFG=2
M  V30 7 C 8.561925 5.771591 -22.945687 0
M  V30 8 O 6.778187 7.233661 -23.964659 0
M  V30 9 C 8.321645 6.985499 -22.074149 0 CFG=1
M  V30 10 C 4.856052 6.757468 -18.682578 0 CFG=2
M  V30 11 C 5.605910 7.334508 -19.830058 0
M  V30 12 C 9.122503 7.064724 -7.030848 0 CFG=2
M  V30 13 C 7.193082 6.396842 -22.906119 0 CFG=2
M  V30 14 C 6.637267 6.909111 -12.960392 0
M  V30 15 C 8.732122 8.345442 -6.400158 0 CFG=1
M  V30 16 C 10.362789 7.185333 -9.798151 0 CFG=1
M  V30 17 C 6.411013 5.176232 -15.855262 0
M  V30 18 C 6.161446 6.067099 -21.897114 0
M  V30 19 N 8.256898 6.569217 -11.091666 0 CHG=1
M  V30 20 O 5.063210 5.593177 -22.193526 0
M  V30 21 C 9.174410 8.358536 -7.829331 0 CFG=1
M  V30 22 C 8.011266 6.833196 -20.580857 0
M  V30 23 C 10.773064 6.712616 -5.039526 0
M  V30 24 C 5.425283 7.153378 -17.306677 0
M  V30 25 C 11.575361 6.676135 -7.483370 0
M  V30 26 C 6.544338 6.360093 -20.460700 0 CFG=1
M  V30 27 C 5.434833 8.595703 -20.268905 0
M  V30 28 C 8.990197 8.311273 -22.406436 0
M  V30 29 C 11.455839 7.379838 -8.821407 0 CFG=2
M  V30 30 C 6.610608 6.322526 -16.827571 0 CFG=1
M  V30 31 O 5.034916 5.369608 -18.931656 0
M  V30 32 C 7.131709 6.409709 -15.412339 0 CFG=1
M  V30 33 C 10.554967 7.168251 -6.480064 0 CFG=2
M  V30 34 O 6.378072 5.209014 -19.646759 0
M  V30 35 C 9.649578 6.226464 -10.725482 0 CFG=1
M  V30 36 H 8.707010 6.328199 -13.115500 0
M  V30 37 H 8.439622 8.001009 -12.627834 0
M  V30 38 H 10.415381 9.329943 -9.403377 0
M  V30 39 H 7.034825 8.318462 -14.562149 0
M  V30 40 H 5.468911 7.537733 -14.640166 0
M  V30 41 H 11.654508 6.846602 -11.572223 0
M  V30 42 H 10.367720 8.135348 -11.755981 0
M  V30 43 H 7.834847 5.860840 -8.268260 0
M  V30 44 H 9.122440 4.965369 -7.491686 0
M  V30 45 H 7.717815 5.517325 -6.541329 0
M  V30 46 H 10.641272 9.575621 -6.386981 0
M  V30 47 H 8.687591 4.808322 -22.455154 0
M  V30 48 H 9.150142 5.905363 -23.849700 0
M  V30 49 H 6.667497 8.111736 -23.635050 0
M  V30 50 H 3.809101 7.040475 -18.737452 0
M  V30 51 H 6.024170 7.554865 -12.329467 0
M  V30 52 H 6.239438 5.899159 -12.851032 0
M  V30 53 H 7.834879 8.941374 -6.462373 0
M  V30 54 H 5.434992 5.026652 -15.402946 0
M  V30 55 H 7.003614 4.277087 -16.011021 0
M  V30 56 H 7.863060 7.271659 -10.447626 0
M  V30 57 H 8.174362 7.769267 -20.049327 0
M  V30 58 H 8.693145 6.101422 -20.146565 0
M  V30 59 H 9.834842 6.569031 -4.508908 0
M  V30 60 H 11.308995 5.769069 -4.998046 0
M  V30 61 H 11.368667 7.436823 -4.483388 0
M  V30 62 H 5.686284 8.209656 -17.280475 0
M  V30 63 H 4.616596 7.030843 -16.588271 0
M  V30 64 H 11.434853 5.605879 -7.625621 0
M  V30 65 H 12.578821 6.824532 -7.091724 0
M  V30 66 H 4.734534 9.261000 -19.788347 0
M  V30 67 H 5.992335 8.973855 -21.113113 0
M  V30 68 H 9.930689 8.406953 -21.862730 0
M  V30 69 H 9.206952 8.382280 -23.472797 0
M  V30 70 H 8.344814 9.146770 -22.132320 0
M  V30 71 H 12.405030 7.722110 -9.231221 0
M  V30 72 H 7.397603 6.209640 -17.570455 0
M  V30 73 H 8.207997 6.290213 -15.305316 0
M  V30 74 H 9.835438 5.156517 -10.683751 0
M  V30 75 H 7.705646 5.736946 -10.946071 0
M  V30 END ATOM
M  V30 BEGIN BOND
M  V30 1 1 9 7
M  V30 2 1 11 10
M  V30 3 1 12 5 CFG=3
M  V30 4 1 13 7
M  V30 5 1 13 8 CFG=3
M  V30 6 1 13 9
M  V30 7 1 14 1
M  V30 8 1 14 3
M  V30 9 1 15 6
M  V30 10 1 15 12
M  V30 11 1 16 2
M  V30 12 1 16 4 CFG=3
M  V30 13 1 18 13
M  V30 14 1 19 1
M  V30 15 2 20 18
M  V30 16 1 21 2
M  V30 17 1 21 6
M  V30 18 1 21 12 CFG=1
M  V30 19 1 21 15
M  V30 20 1 22 9
M  V30 21 1 24 10
M  V30 22 1 26 11
M  V30 23 1 26 18
M  V30 24 1 26 22
M  V30 25 2 27 11
M  V30 26 1 9 28 CFG=3
M  V30 27 1 29 2
M  V30 28 1 29 16
M  V30 29 1 29 25
M  V30 30 1 30 17
M  V30 31 1 30 24
M  V30 32 1 31 10
M  V30 33 1 32 3
M  V30 34 1 32 17
M  V30 35 1 32 30
M  V30 36 1 33 6
M  V30 37 1 33 12
M  V30 38 1 33 23 CFG=1
M  V30 39 1 33 25
M  V30 40 1 26 34 CFG=1
M  V30 41 1 34 31
M  V30 42 1 35 4
M  V30 43 1 35 16
M  V30 44 1 35 19
M  V30 45 1 36 1
M  V30 46 1 37 1
M  V30 47 1 2 38 CFG=3
M  V30 48 1 39 3
M  V30 49 1 40 3
M  V30 50 1 41 4
M  V30 51 1 42 4
M  V30 52 1 43 5
M  V30 53 1 44 5
M  V30 54 1 45 5
M  V30 55 1 6 46 CFG=3
M  V30 56 1 47 7
M  V30 57 1 48 7
M  V30 58 1 49 8
M  V30 59 1 10 50 CFG=1
M  V30 60 1 51 14
M  V30 61 1 52 14
M  V30 62 1 15 53 CFG=3
M  V30 63 1 54 17
M  V30 64 1 55 17
M  V30 65 1 56 19
M  V30 66 1 57 22
M  V30 67 1 58 22
M  V30 68 1 59 23
M  V30 69 1 60 23
M  V30 70 1 61 23
M  V30 71 1 62 24
M  V30 72 1 63 24
M  V30 73 1 64 25
M  V30 74 1 65 25
M  V30 75 1 66 27
M  V30 76 1 67 27
M  V30 77 1 68 28
M  V30 78 1 69 28
M  V30 79 1 70 28
M  V30 80 1 29 71 CFG=3
M  V30 81 1 30 72 CFG=3
M  V30 82 1 32 73 CFG=3
M  V30 83 1 35 74 CFG=1
M  V30 84 1 75 19
M  V30 END BOND
M  V30 END CTAB
M  END
>  <i_epik_Tot_Q>  (1) 
1

>  <i_epik_Tot_abs_Q>  (1) 
1

>  <i_i_glide_confnum>  (1) 
557

>  <i_i_glide_lignum>  (1) 
159

>  <i_i_glide_posenum>  (1) 
77

>  <i_i_glide_rotatable_bonds>  (1) 
8

>  <i_lp_mmshare_version>  (1) 
72125

>  <i_m_source_file_index>  (1) 
79

>  <i_f3d_flags>  (1) 
2

>  <num_sample>  (1) 
100

>  <b_lp_Chiralities_Consistent>  (1) 
0

>  <r_epik_Charging_Adjusted_Penalty>  (1) 
0.013403952672872374

>  <r_epik_Ionization_Penalty>  (1) 
0.0067020061750241401

>  <r_epik_Ionization_Penalty_Charging>  (1) 
0.0067019763364361854

>  <r_epik_Ionization_Penalty_Neutral>  (1) 
2.9838587954806154e-08

>  <r_epik_State_Penalty>  (1) 
0.0067019763364361889

>  <r_glide_ring_energy>  (1) 
0.40288230367583672

>  <r_i_docking_score>  (1) 
-5.5993424948733495

>  <r_i_glide_ecoul>  (1) 
-7.4960306016066562

>  <r_i_glide_eff_state_penalty>  (1) 
0.0067019763364361889

>  <r_i_glide_einternal>  (1) 
10.013737671543767

>  <r_i_glide_emodel>  (1) 
-29.184873976455854

>  <r_i_glide_emodel_strain>  (1) 
3.2863511718790051

>  <r_i_glide_energy>  (1) 
-34.156663895811228

>  <r_i_glide_erotb>  (1) 
0.61918083284399961

>  <r_i_glide_esite>  (1) 
-0.10000000000000001

>  <r_i_glide_evdw>  (1) 
-26.660633294204569

>  <r_i_glide_gscore>  (1) 
-5.6060444712097857

>  <r_i_glide_gscore_strain>  (1) 
0

>  <r_i_glide_hbond>  (1) 
-0.18743719369869388

>  <r_i_glide_ligand_efficiency>  (1) 
-0.15998121413923855

>  <r_i_glide_ligand_efficiency_ln>  (1) 
-1.2291799483358452

>  <r_i_glide_ligand_efficiency_sa>  (1) 
-0.52330915983392978

>  <r_i_glide_lipo>  (1) 
-2.4240982557590947

>  <r_i_glide_metal>  (1) 
-0

>  <r_i_glide_rewards>  (1) 
-1.0562535996447693

>  <r_lp_Energy>  (1) 
113.50332999999999

>  <s_epik_cmdline>  (1) 
J2VwaWtfcHl0aG9uJywgJy1waHQnLCAnMS4wJywgJy1waCcsICc3LjQnLCAnLXRuJywgJzgnLCAnLW1hJywgJzUwMCcsICctaW1hZScsICc8aW5maWxlLm1hZT4nLCAnLW9tYWUnLCAnPG91dGZpbGUubWFlPic=

>  <s_epik_input>  (1) 
W0NASF0xMltDSDJdQzMoW0NIM10pQzQoW0NIM10pW0NIXTVbQ0hdM0M0NVtDQEhdMVtDQF0yNltDSDJdW0NAQEhdNltOSF1bQ0gyXVtDSDJdW0NIMl1bQ0BIXTdbQ0gyXVtDQEhdN1tDSDJdW0NASF0oT084KUMoPVtDSDJdKVtDQF04OUMoPU8pW0NAXTEoW09IXSlbQ0BdKFtDSDJdMSkoW0NIMl05KVtDSDNd

>  <s_glide_docking_method>  (1) 
confgen

>  <s_i_glide_gridfile>  (1) 
gpcr_drd2_6luq_protein_autoprepared_prepared

>  <s_lp_Force_Field>  (1) 
S-OPLS

>  <s_lp_Variant>  (1) 
DiffSBDD_78_num_sample_100-1

>  <s_m_source_file>  (1) 
generated__ligand_DiffSBDD_2026-05-06_prepared.sdf

>  <GenAI_Model>  (1) 
DiffSBDD

>  <Protein>  (1) 
generic_title2

$$$$
DiffSBDD_78_num_sample_100
     RDKit          3D

  0  0  0  0  0  0  0  0  0  0999 V3000
M  V30 BEGIN CTAB
M  V30 COUNTS 75 84 0 0 1
M  V30 BEGIN ATOM
M  V30 1 C 7.657991 5.534733 -11.970580 0
M  V30 2 C 10.142484 8.504813 -9.040342 0 CFG=1
M  V30 3 C 8.001714 4.322719 -14.212482 0
M  V30 4 C 10.606329 7.228263 -11.420499 0
M  V30 5 C 8.450910 5.770282 -7.357430 0
M  V30 6 C 10.113203 8.704082 -6.725775 0 CFG=2
M  V30 7 C 7.567756 6.900640 -23.135349 0
M  V30 8 O 5.270707 7.946834 -23.027197 0
M  V30 9 C 7.415775 7.678262 -21.850368 0 CFG=1
M  V30 10 C 5.654113 5.464828 -17.935088 0 CFG=2
M  V30 11 C 5.726848 6.513871 -18.977538 0
M  V30 12 C 9.158060 7.088814 -7.112713 0 CFG=2
M  V30 13 C 6.207053 7.024973 -22.502714 0 CFG=2
M  V30 14 C 8.314211 5.560186 -13.366293 0
M  V30 15 C 8.752351 8.353788 -6.445019 0 CFG=1
M  V30 16 C 10.342477 7.374512 -9.965329 0 CFG=1
M  V30 17 C 8.089704 3.530680 -16.702029 0
M  V30 18 C 5.709490 6.113641 -21.444266 0
M  V30 19 N 8.238322 6.569298 -11.091669 0 CHG=1
M  V30 20 O 4.700525 5.417754 -21.579764 0
M  V30 21 C 9.135999 8.389728 -7.891662 0 CFG=1
M  V30 22 C 7.718030 7.021844 -20.502448 0
M  V30 23 C 10.891479 6.724263 -5.206983 0
M  V30 24 C 6.585536 5.717464 -16.730312 0
M  V30 25 C 11.593190 6.826685 -7.685839 0
M  V30 26 C 6.529340 6.099004 -20.164967 0 CFG=1
M  V30 27 C 5.109428 7.704732 -18.871557 0
M  V30 28 C 7.661980 9.176867 -21.843714 0
M  V30 29 C 11.425092 7.597134 -8.978076 0 CFG=2
M  V30 30 C 7.944529 5.034138 -16.808531 0 CFG=1
M  V30 31 O 6.015581 4.313662 -18.691758 0
M  V30 32 C 8.621849 4.410137 -15.598929 0 CFG=1
M  V30 33 C 10.605009 7.234729 -6.619392 0 CFG=2
M  V30 34 O 6.940394 4.783983 -19.815867 0
M  V30 35 C 9.622096 6.279909 -10.674087 0 CFG=1
M  V30 36 H 6.586155 5.713959 -12.064281 0
M  V30 37 H 7.773563 4.557858 -11.498907 0
M  V30 38 H 10.274354 9.486893 -9.481932 0
M  V30 39 H 6.926851 4.160827 -14.281583 0
M  V30 40 H 8.404789 3.438049 -13.717811 0
M  V30 41 H 11.571375 6.827858 -11.724163 0
M  V30 42 H 10.189425 7.983915 -12.083162 0
M  V30 43 H 7.834831 5.817321 -8.252974 0
M  V30 44 H 9.175118 4.969384 -7.491653 0
M  V30 45 H 7.800768 5.551141 -6.513644 0
M  V30 46 H 10.622601 9.634062 -6.481269 0
M  V30 47 H 8.059576 5.930887 -23.092298 0
M  V30 48 H 7.782635 7.485372 -24.020809 0
M  V30 49 H 5.695367 8.455817 -23.700741 0
M  V30 50 H 4.634829 5.387190 -17.576689 0
M  V30 51 H 9.399216 5.618218 -13.276543 0
M  V30 52 H 8.004755 6.461314 -13.897087 0
M  V30 53 H 7.834878 8.919434 -6.456253 0
M  V30 54 H 7.189006 2.952069 -16.503967 0
M  V30 55 H 8.812824 3.050258 -17.358446 0
M  V30 56 H 8.237521 7.444143 -11.592162 0
M  V30 57 H 7.866144 7.769290 -19.726811 0
M  V30 58 H 8.647086 6.456326 -20.579634 0
M  V30 59 H 9.978889 6.569438 -4.632855 0
M  V30 60 H 11.410560 5.769274 -5.231571 0
M  V30 61 H 11.527830 7.417620 -4.657351 0
M  V30 62 H 6.724717 6.785633 -16.562154 0
M  V30 63 H 6.061916 5.360893 -15.847883 0
M  V30 64 H 11.434842 5.769351 -7.891491 0
M  V30 65 H 12.613668 6.969320 -7.338286 0
M  V30 66 H 4.530084 7.954503 -17.995280 0
M  V30 67 H 5.176794 8.441059 -19.659092 0
M  V30 68 H 8.702887 9.369309 -21.585501 0
M  V30 69 H 7.466383 9.614973 -22.823228 0
M  V30 70 H 7.020910 9.666313 -21.110268 0
M  V30 71 H 12.346967 8.022670 -9.370309 0
M  V30 72 H 8.608926 5.503964 -17.531875 0
M  V30 73 H 9.702933 4.537088 -15.571368 0
M  V30 74 H 9.834856 5.242281 -10.428911 0
M  V30 75 H 7.654896 6.752165 -10.265682 0
M  V30 END ATOM
M  V30 BEGIN BOND
M  V30 1 1 9 7
M  V30 2 1 11 10
M  V30 3 1 12 5 CFG=3
M  V30 4 1 13 7
M  V30 5 1 13 8 CFG=3
M  V30 6 1 13 9
M  V30 7 1 14 1
M  V30 8 1 14 3
M  V30 9 1 15 6
M  V30 10 1 15 12
M  V30 11 1 16 2
M  V30 12 1 16 4 CFG=3
M  V30 13 1 18 13
M  V30 14 1 19 1
M  V30 15 2 20 18
M  V30 16 1 21 2
M  V30 17 1 21 6
M  V30 18 1 21 12 CFG=1
M  V30 19 1 21 15
M  V30 20 1 22 9
M  V30 21 1 24 10
M  V30 22 1 26 11
M  V30 23 1 26 18
M  V30 24 1 26 22
M  V30 25 2 27 11
M  V30 26 1 9 28 CFG=3
M  V30 27 1 29 2
M  V30 28 1 29 16
M  V30 29 1 29 25
M  V30 30 1 30 17
M  V30 31 1 30 24
M  V30 32 1 31 10
M  V30 33 1 32 3
M  V30 34 1 32 17
M  V30 35 1 32 30
M  V30 36 1 33 6
M  V30 37 1 33 12
M  V30 38 1 33 23 CFG=1
M  V30 39 1 33 25
M  V30 40 1 26 34 CFG=1
M  V30 41 1 34 31
M  V30 42 1 35 4
M  V30 43 1 35 16
M  V30 44 1 35 19
M  V30 45 1 36 1
M  V30 46 1 37 1
M  V30 47 1 2 38 CFG=3
M  V30 48 1 39 3
M  V30 49 1 40 3
M  V30 50 1 41 4
M  V30 51 1 42 4
M  V30 52 1 43 5
M  V30 53 1 44 5
M  V30 54 1 45 5
M  V30 55 1 6 46 CFG=3
M  V30 56 1 47 7
M  V30 57 1 48 7
M  V30 58 1 49 8
M  V30 59 1 10 50 CFG=1
M  V30 60 1 51 14
M  V30 61 1 52 14
M  V30 62 1 15 53 CFG=3
M  V30 63 1 54 17
M  V30 64 1 55 17
M  V30 65 1 56 19
M  V30 66 1 57 22
M  V30 67 1 58 22
M  V30 68 1 59 23
M  V30 69 1 60 23
M  V30 70 1 61 23
M  V30 71 1 62 24
M  V30 72 1 63 24
M  V30 73 1 64 25
M  V30 74 1 65 25
M  V30 75 1 66 27
M  V30 76 1 67 27
M  V30 77 1 68 28
M  V30 78 1 69 28
M  V30 79 1 70 28
M  V30 80 1 29 71 CFG=3
M  V30 81 1 30 72 CFG=3
M  V30 82 1 32 73 CFG=1
M  V30 83 1 35 74 CFG=1
M  V30 84 1 75 19
M  V30 END BOND
M  V30 END CTAB
M  END
>  <i_epik_Tot_Q>  (1) 
1

>  <i_epik_Tot_abs_Q>  (1) 
1

>  <i_i_glide_confnum>  (1) 
208

>  <i_i_glide_lignum>  (1) 
159

>  <i_i_glide_posenum>  (1) 
357

>  <i_i_glide_rotatable_bonds>  (1) 
8

>  <i_lp_mmshare_version>  (1) 
72125

>  <i_m_source_file_index>  (1) 
79

>  <i_f3d_flags>  (1) 
2

>  <num_sample>  (1) 
100

>  <b_lp_Chiralities_Consistent>  (1) 
0

>  <r_epik_Charging_Adjusted_Penalty>  (1) 
0.013403952672872374

>  <r_epik_Ionization_Penalty>  (1) 
0.0067020061750241401

>  <r_epik_Ionization_Penalty_Charging>  (1) 
0.0067019763364361854

>  <r_epik_Ionization_Penalty_Neutral>  (1) 
2.9838587954806154e-08

>  <r_epik_State_Penalty>  (1) 
0.0067019763364361889

>  <r_glide_ring_energy>  (1) 
0.40288230367583672

>  <r_i_docking_score>  (1) 
-5.5938136379921524

>  <r_i_glide_ecoul>  (1) 
-7.9215058143487962

>  <r_i_glide_eff_state_penalty>  (1) 
0.0067019763364361889

>  <r_i_glide_einternal>  (1) 
9.1704790203754065

>  <r_i_glide_emodel>  (1) 
-30.983092591434037

>  <r_i_glide_emodel_strain>  (1) 
2.9160384406134767

>  <r_i_glide_energy>  (1) 
-35.166216152463576

>  <r_i_glide_erotb>  (1) 
0.61918083284399961

>  <r_i_glide_esite>  (1) 
-0.10000000000000001

>  <r_i_glide_evdw>  (1) 
-27.244710338114782

>  <r_i_glide_gscore>  (1) 
-5.6005156143285886

>  <r_i_glide_gscore_strain>  (1) 
0

>  <r_i_glide_hbond>  (1) 
-0.18341077431065936

>  <r_i_glide_ligand_efficiency>  (1) 
-0.15982324679977578

>  <r_i_glide_ligand_efficiency_ln>  (1) 
-1.2279662415440553

>  <r_i_glide_ligand_efficiency_sa>  (1) 
-0.52279243819170296

>  <r_i_glide_lipo>  (1) 
-2.2845074561742944

>  <r_i_glide_metal>  (1) 
-0

>  <r_i_glide_rewards>  (1) 
-1.1013168276295764

>  <r_lp_Energy>  (1) 
113.50332999999999

>  <s_epik_cmdline>  (1) 
J2VwaWtfcHl0aG9uJywgJy1waHQnLCAnMS4wJywgJy1waCcsICc3LjQnLCAnLXRuJywgJzgnLCAnLW1hJywgJzUwMCcsICctaW1hZScsICc8aW5maWxlLm1hZT4nLCAnLW9tYWUnLCAnPG91dGZpbGUubWFlPic=

>  <s_epik_input>  (1) 
W0NASF0xMltDSDJdQzMoW0NIM10pQzQoW0NIM10pW0NIXTVbQ0hdM0M0NVtDQEhdMVtDQF0yNltDSDJdW0NAQEhdNltOSF1bQ0gyXVtDSDJdW0NIMl1bQ0BIXTdbQ0gyXVtDQEhdN1tDSDJdW0NASF0oT084KUMoPVtDSDJdKVtDQF04OUMoPU8pW0NAXTEoW09IXSlbQ0BdKFtDSDJdMSkoW0NIMl05KVtDSDNd

>  <s_glide_docking_method>  (1) 
confgen

>  <s_i_glide_gridfile>  (1) 
gpcr_drd2_6luq_protein_autoprepared_prepared

>  <s_lp_Force_Field>  (1) 
S-OPLS

>  <s_lp_Variant>  (1) 
DiffSBDD_78_num_sample_100-1

>  <s_m_source_file>  (1) 
generated__ligand_DiffSBDD_2026-05-06_prepared.sdf

>  <GenAI_Model>  (1) 
DiffSBDD

>  <Protein>  (1) 
generic_title2

$$$$
DiffSBDD_76_num_sample_100
     RDKit          3D

  0  0  0  0  0  0  0  0  0  0999 V3000
M  V30 BEGIN CTAB
M  V30 COUNTS 77 80 0 0 1
M  V30 BEGIN ATOM
M  V30 1 C 9.426491 6.887726 -10.815555 0
M  V30 2 C 11.513016 8.489577 -6.499942 0
M  V30 3 C 8.806936 3.854122 -11.492386 0
M  V30 4 N 9.431331 5.659531 -9.992005 0 CFG=2 CHG=1
M  V30 5 C 11.935871 8.674532 -5.156302 0
M  V30 6 C 9.182737 3.991873 -18.912487 0
M  V30 7 C 8.708655 5.205738 -19.222352 0
M  V30 8 C 6.274688 5.611783 -16.213717 0 CFG=1
M  V30 9 C 10.902604 7.954529 -9.144366 0
M  V30 10 N 7.986255 4.996766 -14.551961 0
M  V30 11 C 9.446164 5.066784 -14.421751 0
M  V30 12 C 10.407433 7.089022 -8.160188 0
M  V30 13 C 7.491548 5.827077 -18.552777 0
M  V30 14 C 10.416479 6.420149 -5.825148 0
M  V30 15 C 11.628372 9.068485 -8.745613 0
M  V30 16 C 7.034785 7.345996 -14.378832 0
M  V30 17 C 10.682041 7.676184 -10.599235 0
M  V30 18 C 7.265045 4.736858 -13.301291 0
M  V30 19 N 11.855850 9.369285 -7.460284 0
M  V30 20 O 10.015099 5.054654 -15.712789 0
M  V30 21 O 12.802498 8.775390 -2.311255 0
M  V30 22 C 6.751215 4.905766 -17.527533 0 CFG=1
M  V30 23 C 11.673968 7.680556 -4.176210 0
M  V30 24 C 7.730516 3.496809 -12.529771 0
M  V30 25 N 5.434748 7.769270 -17.232601 0 CHG=1
M  V30 26 C 7.403554 6.138100 -15.277946 0 CFG=2
M  V30 27 O 12.676756 9.769298 -4.841869 0 CHG=-1
M  V30 28 C 8.324323 4.756968 -10.346792 0
M  V30 29 C 10.761276 7.332552 -6.816135 0
M  V30 30 C 9.551567 5.885701 -8.539740 0
M  V30 31 C 5.079985 6.563505 -16.470059 0
M  V30 32 C 8.556513 3.171142 -17.909195 0
M  V30 33 C 7.451578 3.569824 -17.263946 0
M  V30 34 C 12.234853 7.787088 -2.765092 0
M  V30 35 C 10.891634 6.569294 -4.523230 0
M  V30 36 C 12.070874 6.548008 -1.891828 0
M  V30 37 H 9.303857 6.664550 -11.871863 0
M  V30 38 H 8.634841 7.554729 -10.537487 0
M  V30 39 H 9.274150 2.968525 -11.091645 0
M  V30 40 H 9.648431 4.334899 -11.975375 0
M  V30 41 H 10.057072 3.620510 -19.425869 0
M  V30 42 H 9.203569 5.796937 -19.978680 0
M  V30 43 H 5.834305 4.834741 -15.603916 0
M  V30 44 H 9.828539 4.169308 -13.953985 0
M  V30 45 H 9.783923 5.917070 -13.838536 0
M  V30 46 H 6.798527 6.133403 -19.336993 0
M  V30 47 H 7.834830 6.740674 -18.078275 0
M  V30 48 H 9.831025 5.564501 -6.074569 0
M  V30 49 H 12.026014 9.756471 -9.478243 0
M  V30 50 H 6.869960 8.238890 -14.977635 0
M  V30 51 H 6.136233 7.175733 -13.784346 0
M  V30 52 H 7.840776 7.593504 -13.689698 0
M  V30 53 H 10.584933 8.622222 -11.096463 0
M  V30 54 H 11.551613 7.167548 -11.016236 0
M  V30 55 H 7.322378 5.606865 -12.654529 0
M  V30 56 H 6.206194 4.607244 -13.524713 0
M  V30 57 H 10.842144 4.595891 -15.658281 0
M  V30 58 H 5.852547 4.578546 -18.051413 0
M  V30 59 H 6.865464 3.068077 -12.022788 0
M  V30 60 H 8.087426 2.726330 -13.214298 0
M  V30 61 H 4.618147 8.350021 -17.375905 0
M  V30 62 H 6.126302 8.297815 -16.720409 0
M  V30 63 H 8.190927 6.512176 -15.891728 0
M  V30 64 H 7.442202 5.347465 -10.593846 0
M  V30 65 H 8.008445 4.169309 -9.489143 0
M  V30 66 H 8.558116 6.047371 -8.114838 0
M  V30 67 H 9.962564 4.971327 -8.112552 0
M  V30 68 H 4.291187 6.037629 -17.009509 0
M  V30 69 H 4.636417 6.871716 -15.528673 0
M  V30 70 H 8.988406 2.211169 -17.669726 0
M  V30 71 H 7.010021 2.927743 -16.516165 0
M  V30 72 H 10.654194 5.816889 -3.788248 0
M  V30 73 H 12.281901 5.642234 -2.456474 0
M  V30 74 H 12.805909 6.581891 -1.091667 0
M  V30 75 H 11.064125 6.489417 -1.479326 0
M  V30 76 H 5.817506 7.499561 -18.126773 0
M  V30 77 H 10.274638 5.165752 -10.237764 0
M  V30 END ATOM
M  V30 BEGIN BOND
M  V30 1 1 4 1
M  V30 2 2 5 2
M  V30 3 2 7 6
M  V30 4 1 11 10
M  V30 5 2 12 9
M  V30 6 1 13 7
M  V30 7 1 15 9
M  V30 8 1 17 1
M  V30 9 1 17 9
M  V30 10 1 18 10
M  V30 11 1 19 2
M  V30 12 2 19 15
M  V30 13 1 20 11
M  V30 14 1 22 8
M  V30 15 1 22 13
M  V30 16 1 23 5
M  V30 17 1 24 3
M  V30 18 1 24 18
M  V30 19 1 26 8
M  V30 20 1 26 10
M  V30 21 1 26 16
M  V30 22 1 27 5
M  V30 23 1 28 3
M  V30 24 1 28 4
M  V30 25 1 29 2
M  V30 26 1 29 12
M  V30 27 2 29 14
M  V30 28 1 30 4
M  V30 29 1 30 12
M  V30 30 1 31 8
M  V30 31 1 31 25
M  V30 32 1 32 6
M  V30 33 1 33 22
M  V30 34 2 33 32
M  V30 35 2 34 21
M  V30 36 1 34 23
M  V30 37 1 35 14
M  V30 38 2 35 23
M  V30 39 1 36 34
M  V30 40 1 37 1
M  V30 41 1 38 1
M  V30 42 1 39 3
M  V30 43 1 40 3
M  V30 44 1 41 6
M  V30 45 1 42 7
M  V30 46 1 8 43 CFG=1
M  V30 47 1 44 11
M  V30 48 1 45 11
M  V30 49 1 46 13
M  V30 50 1 47 13
M  V30 51 1 48 14
M  V30 52 1 49 15
M  V30 53 1 50 16
M  V30 54 1 51 16
M  V30 55 1 52 16
M  V30 56 1 53 17
M  V30 57 1 54 17
M  V30 58 1 55 18
M  V30 59 1 56 18
M  V30 60 1 57 20
M  V30 61 1 22 58 CFG=3
M  V30 62 1 59 24
M  V30 63 1 60 24
M  V30 64 1 61 25
M  V30 65 1 62 25
M  V30 66 1 26 63 CFG=3
M  V30 67 1 64 28
M  V30 68 1 65 28
M  V30 69 1 66 30
M  V30 70 1 67 30
M  V30 71 1 68 31
M  V30 72 1 69 31
M  V30 73 1 70 32
M  V30 74 1 71 33
M  V30 75 1 72 35
M  V30 76 1 73 36
M  V30 77 1 74 36
M  V30 78 1 75 36
M  V30 79 1 76 25
M  V30 80 1 4 77 CFG=3
M  V30 END BOND
M  V30 END CTAB
M  END
>  <i_epik_Tot_Q>  (1) 
1

>  <i_epik_Tot_abs_Q>  (1) 
3

>  <i_i_glide_confnum>  (1) 
2126

>  <i_i_glide_lignum>  (1) 
153

>  <i_i_glide_posenum>  (1) 
216

>  <i_i_glide_rotatable_bonds>  (1) 
12

>  <i_lp_mmshare_version>  (1) 
72125

>  <i_m_source_file_index>  (1) 
77

>  <i_f3d_flags>  (1) 
0

>  <num_sample>  (1) 
100

>  <b_lp_Chiralities_Consistent>  (1) 
1

>  <r_epik_Charging_Adjusted_Penalty>  (1) 
0.19513752508682314

>  <r_epik_Ionization_Penalty>  (1) 
0.12765993639139714

>  <r_epik_Ionization_Penalty_Charging>  (1) 
0.058121654325050918

>  <r_epik_Ionization_Penalty_Neutral>  (1) 
0.069538282066346213

>  <r_epik_State_Penalty>  (1) 
0.13701587076177221

>  <r_glide_ring_energy>  (1) 
0.68305203791256774

>  <r_i_docking_score>  (1) 
-5.5894686339785569

>  <r_i_glide_ecoul>  (1) 
-7.3785612114973294

>  <r_i_glide_eff_state_penalty>  (1) 
0.13701587076177221

>  <r_i_glide_einternal>  (1) 
6.1257868507507993

>  <r_i_glide_emodel>  (1) 
-39.91801913335911

>  <r_i_glide_emodel_strain>  (1) 
0.81354355906212561

>  <r_i_glide_energy>  (1) 
-28.699206013184856

>  <r_i_glide_erotb>  (1) 
0.66875336800380736

>  <r_i_glide_esite>  (1) 
-0.04057517779585175

>  <r_i_glide_evdw>  (1) 
-21.320644801687525

>  <r_i_glide_gscore>  (1) 
-5.7264845047403288

>  <r_i_glide_gscore_strain>  (1) 
0

>  <r_i_glide_hbond>  (1) 
0

>  <r_i_glide_ligand_efficiency>  (1) 
-0.15526301761051547

>  <r_i_glide_ligand_efficiency_ln>  (1) 
-1.2194710459429858

>  <r_i_glide_ligand_efficiency_sa>  (1) 
-0.51266718859376736

>  <r_i_glide_lipo>  (1) 
-2.773043417095014

>  <r_i_glide_metal>  (1) 
-0

>  <r_i_glide_rewards>  (1) 
-1.4088028560442947

>  <r_lp_Energy>  (1) 
66.867964000000001

>  <r_lp_tautomer_probability>  (1) 
0.99995000000000001

>  <s_epik_Chemistry_Notes>  (1) 
This compound contains an acetal/aminal-like group ( X-CH(R)-Y where X, Y are N, S, or O) that may be acid/base labile, releasing an aldehyde.

>  <s_epik_cmdline>  (1) 
J2VwaWtfcHl0aG9uJywgJy1waHQnLCAnMS4wJywgJy1waCcsICc3LjQnLCAnLXRuJywgJzgnLCAnLW1hJywgJzUwMCcsICctaW1hZScsICc8aW5maWxlLm1hZT4nLCAnLW9tYWUnLCAnPG91dGZpbGUubWFlPic=

>  <s_epik_input>  (1) 
Tz1DKFtDSDNdKWMoYzFbT0hdKVtjSF1bY0hdYyhjMTIpYzNjKFtjSF1uMilbQ0gyXVtDSDJdTihbQ0gyXTMpW0NIMl1bQ0gyXVtDSDJdW0NIMl1OKFtDSDJdW09IXSlbQ0BIXShbQ0gzXSlbQ0BASF0oW0NIMl1bTkgyXSlbQ0BIXTRbQ0gyXVtDSF09W0NIXVtDSF09W0NIXTQ=

>  <s_glide_docking_method>  (1) 
confgen

>  <s_i_glide_gridfile>  (1) 
gpcr_drd2_6luq_protein_autoprepared_prepared

>  <s_lp_Force_Field>  (1) 
S-OPLS

>  <s_lp_Variant>  (1) 
DiffSBDD_76_num_sample_100-2

>  <s_m_source_file>  (1) 
generated__ligand_DiffSBDD_2026-05-06_prepared.sdf

>  <GenAI_Model>  (1) 
DiffSBDD

>  <Protein>  (1) 
generic_title2

$$$$
DiffSBDD_73_num_sample_100
     RDKit          3D

  0  0  0  0  0  0  0  0  0  0999 V3000
M  V30 BEGIN CTAB
M  V30 COUNTS 42 44 0 0 1
M  V30 BEGIN ATOM
M  V30 1 C 7.990792 4.258520 -12.275366 0 CFG=1
M  V30 2 C 11.446137 7.600175 -10.083816 0
M  V30 3 O 7.295787 4.283234 -11.165104 0 CHG=-1
M  V30 4 C 12.089583 8.419621 -8.000330 0
M  V30 5 C 5.865626 4.663760 -13.506214 0
M  V30 6 C 7.283955 6.657926 -12.874516 0
M  V30 7 N 7.038620 3.761209 -13.316028 0 CFG=2 CHG=1
M  V30 8 C 9.517414 6.327923 -11.743222 0
M  V30 9 C 10.885007 8.019354 -7.391811 0
M  V30 10 C 10.201113 7.163101 -9.552565 0
M  V30 11 N 12.368874 8.213715 -9.304289 0
M  V30 12 C 6.305500 6.081721 -13.902929 0
M  V30 13 C 7.792324 1.354728 -13.491654 0
M  V30 14 C 11.699792 7.369298 -11.452221 0
M  V30 15 C 6.645098 2.329631 -13.180507 0
M  V30 16 C 10.634481 8.268275 -5.960301 0
M  V30 17 C 9.922618 7.375886 -8.189321 0
M  V30 18 C 10.748014 6.738204 -12.274644 0
M  V30 19 C 9.249397 6.529648 -10.377897 0
M  V30 20 C 8.467079 5.690938 -12.654934 0 CFG=1
M  V30 21 N 11.439011 8.865784 -5.191047 0
M  V30 22 H 8.887945 3.644044 -12.354244 0
M  V30 23 H 12.855592 8.918475 -7.424180 0
M  V30 24 H 5.249186 4.691842 -12.605959 0
M  V30 25 H 5.231083 4.269479 -14.291666 0
M  V30 26 H 6.767652 6.840805 -11.929999 0
M  V30 27 H 7.647942 7.626799 -13.218307 0
M  V30 28 H 5.434839 6.732554 -13.989390 0
M  V30 29 H 6.776427 6.061251 -14.886429 0
M  V30 30 H 7.430820 0.325859 -13.481296 0
M  V30 31 H 8.222930 1.542256 -14.475316 0
M  V30 32 H 8.591006 1.417177 -12.752400 0
M  V30 33 H 12.634838 7.690233 -11.877889 0
M  V30 34 H 6.234843 2.135467 -12.189552 0
M  V30 35 H 5.838489 2.114464 -13.881108 0
M  V30 36 H 9.681914 7.903058 -5.567682 0
M  V30 37 H 8.979938 7.054083 -7.765576 0
M  V30 38 H 10.966294 6.577445 -13.320142 0
M  V30 39 H 8.302705 6.210200 -9.961743 0
M  V30 40 H 8.951967 5.587602 -13.627047 0
M  V30 41 H 11.100319 8.941792 -4.243158 0
M  V30 42 H 7.551837 3.812902 -14.181861 0
M  V30 END ATOM
M  V30 BEGIN BOND
M  V30 1 1 3 1
M  V30 2 1 7 1
M  V30 3 1 7 5
M  V30 4 1 9 4
M  V30 5 1 10 2
M  V30 6 1 11 2
M  V30 7 2 11 4
M  V30 8 1 12 5
M  V30 9 1 12 6
M  V30 10 2 14 2
M  V30 11 1 15 7
M  V30 12 1 15 13
M  V30 13 1 16 9
M  V30 14 2 17 9
M  V30 15 1 17 10
M  V30 16 2 18 8
M  V30 17 1 18 14
M  V30 18 1 19 8
M  V30 19 2 19 10
M  V30 20 1 20 1
M  V30 21 1 20 6
M  V30 22 1 20 8
M  V30 23 2 21 16
M  V30 24 1 1 22 CFG=1
M  V30 25 1 23 4
M  V30 26 1 24 5
M  V30 27 1 25 5
M  V30 28 1 26 6
M  V30 29 1 27 6
M  V30 30 1 28 12
M  V30 31 1 29 12
M  V30 32 1 30 13
M  V30 33 1 31 13
M  V30 34 1 32 13
M  V30 35 1 33 14
M  V30 36 1 34 15
M  V30 37 1 35 15
M  V30 38 1 36 16
M  V30 39 1 37 17
M  V30 40 1 38 18
M  V30 41 1 39 19
M  V30 42 1 20 40 CFG=3
M  V30 43 1 41 21
M  V30 44 1 7 42 CFG=3
M  V30 END BOND
M  V30 END CTAB
M  END
>  <i_epik_Tot_Q>  (1) 
0

>  <i_epik_Tot_abs_Q>  (1) 
2

>  <i_i_glide_confnum>  (1) 
4

>  <i_i_glide_lignum>  (1) 
147

>  <i_i_glide_posenum>  (1) 
400

>  <i_i_glide_rotatable_bonds>  (1) 
3

>  <i_lp_mmshare_version>  (1) 
72125

>  <i_m_source_file_index>  (1) 
74

>  <i_f3d_flags>  (1) 
0

>  <num_sample>  (1) 
100

>  <b_lp_Chiralities_Consistent>  (1) 
1

>  <r_epik_Charging_Adjusted_Penalty>  (1) 
0.16727262916870361

>  <r_epik_Ionization_Penalty>  (1) 
0.055388618387316971

>  <r_epik_Ionization_Penalty_Charging>  (1) 
0.05537307808352282

>  <r_epik_Ionization_Penalty_Neutral>  (1) 
1.5540303794148587e-05

>  <r_epik_State_Penalty>  (1) 
0.11189955108518078

>  <r_glide_ring_energy>  (1) 
0

>  <r_i_docking_score>  (1) 
-5.5874828900890492

>  <r_i_glide_ecoul>  (1) 
-0.57737666372164709

>  <r_i_glide_eff_state_penalty>  (1) 
0.11189955108518078

>  <r_i_glide_einternal>  (1) 
2.699667245485367

>  <r_i_glide_emodel>  (1) 
-38.155404918751557

>  <r_i_glide_emodel_strain>  (1) 
0.10168427320277829

>  <r_i_glide_energy>  (1) 
-27.938967793999101

>  <r_i_glide_erotb>  (1) 
0.22551580141899327

>  <r_i_glide_esite>  (1) 
0

>  <r_i_glide_evdw>  (1) 
-27.361591130277453

>  <r_i_glide_gscore>  (1) 
-5.6993824411742295

>  <r_i_glide_gscore_strain>  (1) 
0

>  <r_i_glide_hbond>  (1) 
0

>  <r_i_glide_ligand_efficiency>  (1) 
-0.26607061381376423

>  <r_i_glide_ligand_efficiency_ln>  (1) 
-1.3814938540022359

>  <r_i_glide_ligand_efficiency_sa>  (1) 
-0.73406864907535885

>  <r_i_glide_lipo>  (1) 
-1.5914801282376527

>  <r_i_glide_metal>  (1) 
-0

>  <r_i_glide_rewards>  (1) 
-2.8787320582834495

>  <r_lp_Energy>  (1) 
44.226918999999995

>  <s_epik_Chemistry_Notes>  (1) 
This compound has an imine and may undergo hydrolysis. This compound contains an acetal/aminal-like group ( X-CH(R)-Y where X, Y are N, S, or O) that may be acid/base labile, releasing an aldehyde.

>  <s_epik_cmdline>  (1) 
J2VwaWtfcHl0aG9uJywgJy1waHQnLCAnMS4wJywgJy1waCcsICc3LjQnLCAnLXRuJywgJzgnLCAnLW1hJywgJzUwMCcsICctaW1hZScsICc8aW5maWxlLm1hZT4nLCAnLW9tYWUnLCAnPG91dGZpbGUubWFlPic=

>  <s_epik_input>  (1) 
W09IXVtDQEhdMU4oW0NIMl1bQ0gzXSlbQ0gyXVtDSDJdW0NIMl1bQ0BIXTFjKFtjSF1bY0hdMilbY0hdYyhjMjMpW2NIXWMoW2NIXW4zKS9bQ0hdPU4vW0hd

>  <s_glide_docking_method>  (1) 
confgen

>  <s_i_glide_gridfile>  (1) 
gpcr_drd2_6luq_protein_autoprepared_prepared

>  <s_lp_Force_Field>  (1) 
S-OPLS

>  <s_lp_Variant>  (1) 
DiffSBDD_73_num_sample_100-2

>  <s_m_source_file>  (1) 
generated__ligand_DiffSBDD_2026-05-06_prepared.sdf

>  <GenAI_Model>  (1) 
DiffSBDD

>  <Protein>  (1) 
generic_title2

$$$$
DiffSBDD_79_num_sample_100
     RDKit          3D

  0  0  0  0  0  0  0  0  0  0999 V3000
M  V30 BEGIN CTAB
M  V30 COUNTS 55 58 0 0 1
M  V30 BEGIN ATOM
M  V30 1 C 4.994373 7.890515 -21.962284 0
M  V30 2 C 5.176121 6.462283 -19.881539 0
M  V30 3 O 5.353207 3.564041 -22.067773 0
M  V30 4 C 8.253376 4.969645 -10.361591 0
M  V30 5 C 8.652767 5.239103 -11.622021 0
M  V30 6 C 5.349356 4.117258 -20.946267 0
M  V30 7 C 6.170360 7.236700 -14.992362 0
M  V30 8 C 6.661412 5.299738 -13.404274 0 CFG=1
M  V30 9 C 8.926979 5.368887 -9.090646 0
M  V30 10 C 6.214460 6.736151 -13.514728 0
M  V30 11 S 5.036942 8.169396 -20.127608 0
M  V30 12 C 10.289506 7.367412 -9.818312 0
M  V30 13 C 9.833524 6.065366 -11.966168 0
M  V30 14 F 10.860132 8.516820 -9.412804 0
M  V30 15 C 7.937742 5.119945 -14.173307 0 CFG=1
M  V30 16 C 9.586856 6.685762 -8.914995 0
M  V30 17 C 7.869232 4.627921 -12.748356 0 CFG=1
M  V30 18 C 3.784435 7.343634 -17.091222 0
M  V30 19 O 5.434389 3.574455 -19.820280 0 CHG=-1
M  V30 20 C 5.138328 6.355503 -22.304219 0
M  V30 21 C 10.518506 6.969492 -11.205021 0
M  V30 22 C 5.219199 5.691133 -20.954932 0
M  V30 23 C 7.149675 5.360356 -16.528612 0
M  V30 24 N 5.222951 6.038882 -18.552958 0
M  V30 25 O 9.434768 7.118102 -7.653011 0
M  V30 26 C 5.231976 6.898300 -17.370866 0 CFG=2
M  V30 27 C 7.716841 4.391252 -15.466753 0
M  V30 28 C 5.876691 6.189198 -16.129242 0 CFG=2
M  V30 29 H 5.792560 8.466464 -22.432632 0
M  V30 30 H 4.050210 8.275738 -22.349660 0
M  V30 31 H 7.381837 4.343586 -10.231456 0
M  V30 32 H 5.446276 8.047937 -15.019809 0
M  V30 33 H 7.113227 7.731426 -15.213234 0
M  V30 34 H 5.848460 4.605055 -13.608892 0
M  V30 35 H 9.668910 4.600690 -8.867797 0
M  V30 36 H 8.159558 5.262137 -8.321102 0
M  V30 37 H 5.222743 6.811275 -13.068304 0
M  V30 38 H 6.866492 7.373694 -12.915347 0
M  V30 39 H 10.182963 5.972595 -12.982699 0
M  V30 40 H 8.537796 6.011957 -14.325456 0
M  V30 41 H 7.815831 3.546088 -12.638572 0
M  V30 42 H 3.720136 8.091357 -16.301444 0
M  V30 43 H 3.308791 7.777507 -17.969516 0
M  V30 44 H 3.163969 6.498360 -16.793601 0
M  V30 45 H 6.039386 6.152137 -22.883953 0
M  V30 46 H 4.276131 5.987152 -22.860692 0
M  V30 47 H 11.322142 7.482166 -11.707743 0
M  V30 48 H 6.950813 4.730175 -17.394812 0
M  V30 49 H 7.932146 6.044256 -16.853158 0
M  V30 50 H 8.673662 6.683081 -7.297787 0
M  V30 51 H 5.843110 7.769610 -17.594073 0
M  V30 52 H 7.038826 3.549603 -15.315465 0
M  V30 53 H 8.664090 3.971947 -15.805854 0
M  V30 54 H 5.132604 5.490813 -15.753225 0
M  V30 55 H 5.307155 5.040199 -18.384888 0
M  V30 END ATOM
M  V30 BEGIN BOND
M  V30 1 2 5 4
M  V30 2 2 6 3
M  V30 3 1 9 4
M  V30 4 1 10 7
M  V30 5 1 10 8
M  V30 6 1 11 1
M  V30 7 1 11 2
M  V30 8 1 13 5
M  V30 9 1 14 12
M  V30 10 1 15 8
M  V30 11 1 16 9
M  V30 12 2 16 12
M  V30 13 1 17 5
M  V30 14 1 17 8
M  V30 15 1 17 15
M  V30 16 1 19 6
M  V30 17 1 20 1
M  V30 18 1 21 12
M  V30 19 2 21 13
M  V30 20 2 22 2
M  V30 21 1 22 6
M  V30 22 1 22 20
M  V30 23 1 24 2
M  V30 24 1 25 16
M  V30 25 1 26 18
M  V30 26 1 26 24
M  V30 27 1 27 15
M  V30 28 1 27 23
M  V30 29 1 28 7
M  V30 30 1 28 23
M  V30 31 1 28 26
M  V30 32 1 29 1
M  V30 33 1 30 1
M  V30 34 1 31 4
M  V30 35 1 32 7
M  V30 36 1 33 7
M  V30 37 1 8 34 CFG=3
M  V30 38 1 35 9
M  V30 39 1 36 9
M  V30 40 1 37 10
M  V30 41 1 38 10
M  V30 42 1 39 13
M  V30 43 1 15 40 CFG=3
M  V30 44 1 17 41 CFG=3
M  V30 45 1 42 18
M  V30 46 1 43 18
M  V30 47 1 44 18
M  V30 48 1 45 20
M  V30 49 1 46 20
M  V30 50 1 47 21
M  V30 51 1 48 23
M  V30 52 1 49 23
M  V30 53 1 50 25
M  V30 54 1 26 51 CFG=3
M  V30 55 1 52 27
M  V30 56 1 53 27
M  V30 57 1 28 54 CFG=1
M  V30 58 1 55 24
M  V30 END BOND
M  V30 END CTAB
M  END
>  <i_epik_Tot_Q>  (1) 
-1

>  <i_epik_Tot_abs_Q>  (1) 
1

>  <i_i_glide_confnum>  (1) 
32

>  <i_i_glide_lignum>  (1) 
160

>  <i_i_glide_posenum>  (1) 
338

>  <i_i_glide_rotatable_bonds>  (1) 
6

>  <i_lp_mmshare_version>  (1) 
72125

>  <i_m_source_file_index>  (1) 
80

>  <i_f3d_flags>  (1) 
0

>  <num_sample>  (1) 
100

>  <b_lp_Chiralities_Consistent>  (1) 
1

>  <r_epik_Charging_Adjusted_Penalty>  (1) 
0.11080769427664984

>  <r_epik_Ionization_Penalty>  (1) 
0.11081096683628129

>  <r_epik_Ionization_Penalty_Charging>  (1) 
0.00049387447544676805

>  <r_epik_Ionization_Penalty_Neutral>  (1) 
0.11031709236083452

>  <r_epik_State_Penalty>  (1) 
0.11031381980120307

>  <r_glide_ring_energy>  (1) 
0.00060166262151322434

>  <r_i_docking_score>  (1) 
-5.5841235935889744

>  <r_i_glide_ecoul>  (1) 
-0.55715537437758467

>  <r_i_glide_eff_state_penalty>  (1) 
0.11031381980120307

>  <r_i_glide_einternal>  (1) 
10.961794317560454

>  <r_i_glide_emodel>  (1) 
-44.315490856304251

>  <r_i_glide_emodel_strain>  (1) 
1.3530502399918873

>  <r_i_glide_energy>  (1) 
-39.9096046443319

>  <r_i_glide_erotb>  (1) 
0.48016734467205424

>  <r_i_glide_esite>  (1) 
0

>  <r_i_glide_evdw>  (1) 
-39.352449269954313

>  <r_i_glide_gscore>  (1) 
-5.6944374133901778

>  <r_i_glide_gscore_strain>  (1) 
0

>  <r_i_glide_hbond>  (1) 
0

>  <r_i_glide_ligand_efficiency>  (1) 
-0.19943298548532051

>  <r_i_glide_ligand_efficiency_ln>  (1) 
-1.2889796823934194

>  <r_i_glide_ligand_efficiency_sa>  (1) 
-0.60559600435296346

>  <r_i_glide_lipo>  (1) 
-2.2993609764609468

>  <r_i_glide_metal>  (1) 
-0

>  <r_i_glide_rewards>  (1) 
-1.8240480119469322

>  <r_lp_Energy>  (1) 
42.621707000000001

>  <s_epik_cmdline>  (1) 
J2VwaWtfcHl0aG9uJywgJy1waHQnLCAnMS4wJywgJy1waCcsICc3LjQnLCAnLXRuJywgJzgnLCAnLW1hJywgJzUwMCcsICctaW1hZScsICc8aW5maWxlLm1hZT4nLCAnLW9tYWUnLCAnPG91dGZpbGUubWFlPic=

>  <s_epik_input>  (1) 
Tz1DKFtPSF0pW0NASF0xW0NIMl1bQ0gyXVMvQzE9Ti9bQ0BASF0oW0NIM10pW0NASF0oW0NIMl1bQ0gyXTIpW0NIMl1bQ0gyXVtDQEBIXShbQ0BIXTIzKVtDQEhdM0M0PVtDSF1bQ0gyXUMoW09IXSk9QyhGKVtDSF09W0NIXTQ=

>  <s_glide_docking_method>  (1) 
confgen

>  <s_i_glide_gridfile>  (1) 
gpcr_drd2_6luq_protein_autoprepared_prepared

>  <s_lp_Force_Field>  (1) 
S-OPLS

>  <s_lp_Variant>  (1) 
DiffSBDD_79_num_sample_100-1

>  <s_m_source_file>  (1) 
generated__ligand_DiffSBDD_2026-05-06_prepared.sdf

>  <GenAI_Model>  (1) 
DiffSBDD

>  <Protein>  (1) 
generic_title2

$$$$
DiffSBDD_67_num_sample_100
     RDKit          3D

  0  0  0  0  0  0  0  0  0  0999 V3000
M  V30 BEGIN CTAB
M  V30 COUNTS 79 83 0 0 1
M  V30 BEGIN ATOM
M  V30 1 C 7.292460 4.086939 -17.086740 0 CFG=2
M  V30 2 C 8.682434 5.704630 -18.523758 0 CFG=1
M  V30 3 C 10.156282 5.785049 -18.955717 0
M  V30 4 C 7.749925 6.488669 -19.486151 0 CFG=1
M  V30 5 C 8.094018 3.023574 -12.717920 0
M  V30 6 C 6.638778 3.156613 -14.785874 0
M  V30 7 C 11.935099 7.787048 -9.864482 0
M  V30 8 C 9.974736 7.971395 -8.430547 0
M  V30 9 C 6.281975 4.790395 -20.772537 0 CFG=2
M  V30 10 C 8.842527 7.728889 -11.617326 0
M  V30 11 C 8.923087 3.826885 -11.694040 0
M  V30 12 C 12.714256 8.378437 -8.871468 0
M  V30 13 C 9.070694 5.659661 -10.067292 0
M  V30 14 O 8.363960 7.164735 -12.630809 0 CHG=-1
M  V30 15 F 10.195517 8.949944 -6.263766 0
M  V30 16 C 5.844470 4.981513 -11.605935 0
M  V30 17 O 8.636476 8.914170 -11.276682 0
M  V30 18 C 7.498029 5.741745 -20.821167 0
M  V30 19 C 5.818513 4.492865 -19.330602 0 CFG=2
M  V30 20 C 10.571204 7.573390 -9.652902 0
M  V30 21 C 5.364010 5.830095 -18.710349 0
M  V30 22 N 5.834899 3.849881 -12.518169 0
M  V30 23 C 6.853679 4.726382 -10.507882 0
M  V30 24 N 8.216482 4.954146 -11.027669 0 CFG=2 CHG=1
M  V30 25 C 6.426027 6.943109 -18.824213 0
M  V30 26 C 6.998097 3.818141 -13.438867 0 CFG=1
M  V30 27 C 7.889414 1.678612 -16.452350 0
M  V30 28 C 9.760835 6.863951 -10.716045 0 CFG=2
M  V30 29 O 6.539614 3.603494 -21.491840 0
M  V30 30 C 6.863244 3.718500 -18.507978 0 CFG=1
M  V30 31 C 8.252681 4.275778 -18.246898 0 CFG=2
M  V30 32 O 14.035041 8.569301 -9.093642 0
M  V30 33 C 12.131134 8.772157 -7.649511 0
M  V30 34 C 4.501122 3.767479 -13.090118 0
M  V30 35 C 10.758925 8.570459 -7.432313 0
M  V30 36 C 7.670689 3.122488 -15.952848 0 CFG=1
M  V30 37 H 6.896162 5.016697 -16.689813 0
M  V30 38 H 8.664346 6.171168 -17.545814 0
M  V30 39 H 10.336564 5.281982 -19.904490 0
M  V30 40 H 10.474790 6.822768 -19.062991 0
M  V30 41 H 10.807187 5.322398 -18.213767 0
M  V30 42 H 8.286166 7.402623 -19.736551 0
M  V30 43 H 7.659106 2.119699 -12.295078 0
M  V30 44 H 8.795208 2.621338 -13.443035 0
M  V30 45 H 6.238036 2.153753 -14.620943 0
M  V30 46 H 5.839534 3.806836 -15.092510 0
M  V30 47 H 12.387624 7.480775 -10.790843 0
M  V30 48 H 8.923099 7.809847 -8.257220 0
M  V30 49 H 14.236725 9.513098 -9.091676 0
M  V30 50 H 5.456852 5.280601 -21.293113 0
M  V30 51 H 9.775059 4.257120 -12.222858 0
M  V30 52 H 9.365280 3.159260 -10.955130 0
M  V30 53 H 9.816703 4.983833 -9.644570 0
M  V30 54 H 8.494279 5.991764 -9.209227 0
M  V30 55 H 4.881858 5.093362 -11.107819 0
M  V30 56 H 6.024814 5.916548 -12.135990 0
M  V30 57 H 7.335686 6.469042 -21.618785 0
M  V30 58 H 8.395222 5.198479 -21.116392 0
M  V30 59 H 4.942427 3.848648 -19.397992 0
M  V30 60 H 5.029205 5.703518 -17.681766 0
M  V30 61 H 4.475016 6.166291 -19.245321 0
M  V30 62 H 6.711443 3.769632 -10.017145 0
M  V30 63 H 6.611807 5.457721 -9.740977 0
M  V30 64 H 6.625424 7.359154 -17.836926 0
M  V30 65 H 6.004145 7.758057 -19.416502 0
M  V30 66 H 7.332701 4.834366 -13.647834 0
M  V30 67 H 6.959965 1.254061 -16.834273 0
M  V30 68 H 8.625373 1.619073 -17.254672 0
M  V30 69 H 8.235704 1.029341 -15.648196 0
M  V30 70 H 10.483591 6.461621 -11.426006 0
M  V30 71 H 7.280129 3.170442 -21.096880 0
M  V30 72 H 6.866473 2.662095 -18.771217 0
M  V30 73 H 9.068063 3.557604 -18.308928 0
M  V30 74 H 12.735432 9.229557 -6.882549 0
M  V30 75 H 4.376857 2.773212 -13.492219 0
M  V30 76 H 3.740080 3.770266 -12.322053 0
M  V30 77 H 4.274109 4.553171 -13.811614 0
M  V30 78 H 8.627429 3.479927 -15.575210 0
M  V30 79 H 8.076739 5.658544 -11.754030 0
M  V30 END ATOM
M  V30 BEGIN BOND
M  V30 1 1 3 2
M  V30 2 1 4 2
M  V30 3 1 11 5
M  V30 4 2 12 7
M  V30 5 1 14 10
M  V30 6 2 17 10
M  V30 7 1 18 4
M  V30 8 1 18 9
M  V30 9 1 19 9
M  V30 10 1 20 7
M  V30 11 2 20 8
M  V30 12 1 21 19
M  V30 13 1 22 16
M  V30 14 1 23 16
M  V30 15 1 24 11
M  V30 16 1 24 13
M  V30 17 1 24 23
M  V30 18 1 25 4
M  V30 19 1 25 21
M  V30 20 1 26 5
M  V30 21 1 26 6
M  V30 22 1 26 22
M  V30 23 1 28 10
M  V30 24 1 28 13
M  V30 25 1 28 20
M  V30 26 1 29 9
M  V30 27 1 30 1
M  V30 28 1 30 19
M  V30 29 1 31 1
M  V30 30 1 31 2
M  V30 31 1 31 30
M  V30 32 1 32 12
M  V30 33 1 33 12
M  V30 34 1 34 22
M  V30 35 1 35 8
M  V30 36 1 35 15
M  V30 37 2 35 33
M  V30 38 1 36 1
M  V30 39 1 36 6
M  V30 40 1 36 27
M  V30 41 1 1 37 CFG=1
M  V30 42 1 2 38 CFG=1
M  V30 43 1 39 3
M  V30 44 1 40 3
M  V30 45 1 41 3
M  V30 46 1 4 42 CFG=3
M  V30 47 1 43 5
M  V30 48 1 44 5
M  V30 49 1 45 6
M  V30 50 1 46 6
M  V30 51 1 47 7
M  V30 52 1 48 8
M  V30 53 1 49 32
M  V30 54 1 9 50 CFG=3
M  V30 55 1 51 11
M  V30 56 1 52 11
M  V30 57 1 53 13
M  V30 58 1 54 13
M  V30 59 1 55 16
M  V30 60 1 56 16
M  V30 61 1 57 18
M  V30 62 1 58 18
M  V30 63 1 19 59 CFG=3
M  V30 64 1 60 21
M  V30 65 1 61 21
M  V30 66 1 62 23
M  V30 67 1 63 23
M  V30 68 1 64 25
M  V30 69 1 65 25
M  V30 70 1 26 66 CFG=3
M  V30 71 1 67 27
M  V30 72 1 68 27
M  V30 73 1 69 27
M  V30 74 1 28 70 CFG=3
M  V30 75 1 71 29
M  V30 76 1 30 72 CFG=1
M  V30 77 1 31 73 CFG=1
M  V30 78 1 74 33
M  V30 79 1 75 34
M  V30 80 1 76 34
M  V30 81 1 77 34
M  V30 82 1 36 78 CFG=1
M  V30 83 1 24 79 CFG=3
M  V30 END BOND
M  V30 END CTAB
M  END
>  <i_epik_Tot_Q>  (1) 
0

>  <i_epik_Tot_abs_Q>  (1) 
2

>  <i_i_glide_confnum>  (1) 
26

>  <i_i_glide_lignum>  (1) 
133

>  <i_i_glide_posenum>  (1) 
133

>  <i_i_glide_rotatable_bonds>  (1) 
9

>  <i_lp_mmshare_version>  (1) 
72125

>  <i_m_source_file_index>  (1) 
68

>  <i_f3d_flags>  (1) 
0

>  <num_sample>  (1) 
100

>  <b_lp_Chiralities_Consistent>  (1) 
1

>  <r_epik_Charging_Adjusted_Penalty>  (1) 
0.12241089881330544

>  <r_epik_Ionization_Penalty>  (1) 
0.01898901772236716

>  <r_epik_Ionization_Penalty_Charging>  (1) 
0.00080544074301080722

>  <r_epik_Ionization_Penalty_Neutral>  (1) 
0.018183576979356353

>  <r_epik_State_Penalty>  (1) 
0.12160545807029463

>  <r_glide_ring_energy>  (1) 
0.59912657946458703

>  <r_i_docking_score>  (1) 
-5.5836590274907527

>  <r_i_glide_ecoul>  (1) 
-11.662337653807398

>  <r_i_glide_eff_state_penalty>  (1) 
0.12160545807029463

>  <r_i_glide_einternal>  (1) 
10.463415173649601

>  <r_i_glide_emodel>  (1) 
-24.70312889608488

>  <r_i_glide_emodel_strain>  (1) 
5.8528267712380142

>  <r_i_glide_energy>  (1) 
-30.712035231500231

>  <r_i_glide_erotb>  (1) 
0.48522832276191719

>  <r_i_glide_esite>  (1) 
-0.10383013060014319

>  <r_i_glide_evdw>  (1) 
-19.049697577692832

>  <r_i_glide_gscore>  (1) 
-5.705264485561047

>  <r_i_glide_gscore_strain>  (1) 
0.46320669280950355

>  <r_i_glide_hbond>  (1) 
-0.32000000000000001

>  <r_i_glide_ligand_efficiency>  (1) 
-0.15510163965252091

>  <r_i_glide_ligand_efficiency_ln>  (1) 
-1.2182035467647756

>  <r_i_glide_ligand_efficiency_sa>  (1) 
-0.51213433031689426

>  <r_i_glide_lipo>  (1) 
-2.5323630468790559

>  <r_i_glide_metal>  (1) 
-0

>  <r_i_glide_rewards>  (1) 
-0.99567079669751657

>  <r_lp_Energy>  (1) 
56.91601

>  <r_lp_tautomer_probability>  (1) 
0.99999999999736477

>  <s_epik_cmdline>  (1) 
J2VwaWtfcHl0aG9uJywgJy1waHQnLCAnMS4wJywgJy1waCcsICc3LjQnLCAnLXRuJywgJzgnLCAnLW1hJywgJzUwMCcsICctaW1hZScsICc8aW5maWxlLm1hZT4nLCAnLW9tYWUnLCAnPG91dGZpbGUubWFlPic=

>  <s_epik_input>  (1) 
W0NIM11bQ0BASF0oW0NAQEhdMTIpW0NAQEhdM1tDQEhdKFtDQEhdKFtDQEBIXShbQ0gyXTEpW09IXSlbQ0gyXVtDSDJdMilbQ0BIXTNbQ0BIXShbQ0gzXSlbQ0gyXVtDQEBIXTRbQ0gyXVtDSDJdTihbQ0gyXVtDSDJdTjRbQ0gzXSlbQ0gyXVtDQEBIXShDKD1PKVtPSF0pQyg9W0NIXUM1PU8pW0NIMl1DKEYpPVtDSF01

>  <s_glide_docking_method>  (1) 
confgen

>  <s_i_glide_gridfile>  (1) 
gpcr_drd2_6luq_protein_autoprepared_prepared

>  <s_lp_Force_Field>  (1) 
S-OPLS

>  <s_lp_Variant>  (1) 
DiffSBDD_67_num_sample_100-1

>  <s_m_source_file>  (1) 
generated__ligand_DiffSBDD_2026-05-06_prepared.sdf

>  <GenAI_Model>  (1) 
DiffSBDD

>  <Protein>  (1) 
generic_title2

$$$$
DiffSBDD_44_num_sample_100
     RDKit          3D

  0  0  0  0  0  0  0  0  0  0999 V3000
M  V30 BEGIN CTAB
M  V30 COUNTS 56 58 0 0 1
M  V30 BEGIN ATOM
M  V30 1 C 7.534375 3.965606 -15.467664 0
M  V30 2 C 7.308756 4.385925 -13.997763 0 CFG=1
M  V30 3 C 12.016478 8.991187 -5.131549 0
M  V30 4 C 11.957543 7.086020 -3.058981 0
M  V30 5 C 11.337077 6.793210 -4.292024 0
M  V30 6 C 10.191867 6.554207 -11.279064 0
M  V30 7 C 5.920481 4.969856 -13.797254 0
M  V30 8 N 7.161669 3.194838 -13.113000 0 CFG=2 CHG=1
M  V30 9 C 10.859016 7.405147 -10.186765 0
M  V30 10 C 10.834689 8.120610 -7.753881 0
M  V30 11 O 11.541754 9.108551 -7.906099 0
M  V30 12 C 12.611602 8.306255 -2.872343 0
M  V30 13 N 11.919917 6.169308 -2.024494 0
M  V30 14 C 5.184417 4.480708 -12.572261 0
M  V30 15 N 10.708491 7.420990 -6.618323 0
M  V30 16 C 8.975108 7.214215 -11.941048 0
M  V30 17 O 9.513777 5.369262 -14.011065 0
M  V30 18 C 9.493778 6.249563 -8.244656 0
M  V30 19 C 6.236414 3.521307 -12.000173 0
M  V30 20 N 8.055570 6.230041 -12.504900 0
M  V30 21 C 8.378990 2.476017 -12.686522 0
M  V30 22 C 10.019380 7.565701 -8.899327 0 CFG=2
M  V30 23 C 9.910424 6.228275 -6.749565 0
M  V30 24 C 11.360917 7.745085 -5.345327 0
M  V30 25 C 8.397420 5.380917 -13.501689 0
M  V30 26 C 12.643169 9.249588 -3.901278 0
M  V30 27 O 5.434810 5.788793 -14.572229 0
M  V30 28 H 7.617607 4.836849 -16.119531 0
M  V30 29 H 8.450573 3.386695 -15.585434 0
M  V30 30 H 6.715808 3.351828 -15.844171 0
M  V30 31 H 12.051538 9.743747 -5.891680 0
M  V30 32 H 10.839858 5.844533 -4.424696 0
M  V30 33 H 10.933215 6.334670 -12.048511 0
M  V30 34 H 9.890898 5.587222 -10.878762 0
M  V30 35 H 11.087958 8.390918 -10.593776 0
M  V30 36 H 11.824743 6.969320 -9.931883 0
M  V30 37 H 13.092442 8.523901 -1.929481 0
M  V30 38 H 12.412090 6.331911 -1.159323 0
M  V30 39 H 11.491392 5.256769 -2.140877 0
M  V30 40 H 4.958141 5.293051 -11.882004 0
M  V30 41 H 4.271827 3.964504 -12.871505 0
M  V30 42 H 8.404349 7.775250 -11.202265 0
M  V30 43 H 9.286614 7.939102 -12.691654 0
M  V30 44 H 8.409767 6.169485 -8.343532 0
M  V30 45 H 9.914386 5.367757 -8.726117 0
M  V30 46 H 6.781517 4.022343 -11.197226 0
M  V30 47 H 5.834850 2.603787 -11.579181 0
M  V30 48 H 7.121031 6.196888 -12.124262 0
M  V30 49 H 8.940499 3.020044 -11.924885 0
M  V30 50 H 8.104313 1.499195 -12.291651 0
M  V30 51 H 9.034834 2.266129 -13.504626 0
M  V30 52 H 9.188101 8.250043 -9.068931 0
M  V30 53 H 10.547993 5.369423 -6.580051 0
M  V30 54 H 9.054752 6.220279 -6.073039 0
M  V30 55 H 13.154786 10.169259 -3.748346 0
M  V30 56 H 6.653189 2.531982 -13.681950 0
M  V30 END ATOM
M  V30 BEGIN BOND
M  V30 1 1 2 1 CFG=3
M  V30 2 2 5 4
M  V30 3 1 7 2
M  V30 4 1 8 2
M  V30 5 1 9 6
M  V30 6 2 11 10
M  V30 7 1 12 4
M  V30 8 1 13 4
M  V30 9 1 14 7
M  V30 10 1 15 10
M  V30 11 1 16 6
M  V30 12 1 19 8
M  V30 13 1 19 14
M  V30 14 1 20 16
M  V30 15 1 21 8
M  V30 16 1 22 9
M  V30 17 1 22 10
M  V30 18 1 22 18
M  V30 19 1 23 15
M  V30 20 1 23 18
M  V30 21 2 24 3
M  V30 22 1 24 5
M  V30 23 1 24 15
M  V30 24 1 25 2
M  V30 25 2 25 17
M  V30 26 1 25 20
M  V30 27 1 26 3
M  V30 28 2 26 12
M  V30 29 2 27 7
M  V30 30 1 28 1
M  V30 31 1 29 1
M  V30 32 1 30 1
M  V30 33 1 31 3
M  V30 34 1 32 5
M  V30 35 1 33 6
M  V30 36 1 34 6
M  V30 37 1 35 9
M  V30 38 1 36 9
M  V30 39 1 37 12
M  V30 40 1 38 13
M  V30 41 1 39 13
M  V30 42 1 40 14
M  V30 43 1 41 14
M  V30 44 1 42 16
M  V30 45 1 43 16
M  V30 46 1 44 18
M  V30 47 1 45 18
M  V30 48 1 46 19
M  V30 49 1 47 19
M  V30 50 1 48 20
M  V30 51 1 49 21
M  V30 52 1 50 21
M  V30 53 1 51 21
M  V30 54 1 22 52 CFG=3
M  V30 55 1 53 23
M  V30 56 1 54 23
M  V30 57 1 55 26
M  V30 58 1 8 56 CFG=3
M  V30 END BOND
M  V30 END CTAB
M  END
>  <i_epik_Tot_Q>  (1) 
1

>  <i_epik_Tot_abs_Q>  (1) 
1

>  <i_i_glide_confnum>  (1) 
55

>  <i_i_glide_lignum>  (1) 
80

>  <i_i_glide_posenum>  (1) 
118

>  <i_i_glide_rotatable_bonds>  (1) 
7

>  <i_lp_mmshare_version>  (1) 
72125

>  <i_m_source_file_index>  (1) 
45

>  <i_f3d_flags>  (1) 
0

>  <num_sample>  (1) 
100

>  <b_lp_Chiralities_Consistent>  (1) 
1

>  <r_epik_Charging_Adjusted_Penalty>  (1) 
0.87787264938008924

>  <r_epik_Ionization_Penalty>  (1) 
0.44040452980928141

>  <r_epik_Ionization_Penalty_Charging>  (1) 
0.43893632469004462

>  <r_epik_Ionization_Penalty_Neutral>  (1) 
0.0014682051192367804

>  <r_epik_State_Penalty>  (1) 
0.43893632469004457

>  <r_glide_ring_energy>  (1) 
0

>  <r_i_docking_score>  (1) 
-5.5820978755680368

>  <r_i_glide_ecoul>  (1) 
-5.4204933663421846

>  <r_i_glide_eff_state_penalty>  (1) 
0.43893632469004457

>  <r_i_glide_einternal>  (1) 
12.269476463450538

>  <r_i_glide_emodel>  (1) 
-48.742870521570339

>  <r_i_glide_emodel_strain>  (1) 
0.63553510437662908

>  <r_i_glide_energy>  (1) 
-38.62487966270416

>  <r_i_glide_erotb>  (1) 
0.96983297192060391

>  <r_i_glide_esite>  (1) 
-0.025691735362431658

>  <r_i_glide_evdw>  (1) 
-33.204386296361974

>  <r_i_glide_gscore>  (1) 
-6.0210342002580814

>  <r_i_glide_gscore_strain>  (1) 
0

>  <r_i_glide_hbond>  (1) 
0

>  <r_i_glide_ligand_efficiency>  (1) 
-0.20674436576177915

>  <r_i_glide_ligand_efficiency_ln>  (1) 
-1.2994203573563754

>  <r_i_glide_ligand_efficiency_sa>  (1) 
-0.6202330972853376

>  <r_i_glide_lipo>  (1) 
-2.3622344999390745

>  <r_i_glide_metal>  (1) 
-0

>  <r_i_glide_rewards>  (1) 
-2.1296476171077523

>  <r_lp_Energy>  (1) 
34.499494999999996

>  <r_lp_tautomer_probability>  (1) 
0.99995000000000001

>  <s_epik_cmdline>  (1) 
J2VwaWtfcHl0aG9uJywgJy1waHQnLCAnMS4wJywgJy1waCcsICc3LjQnLCAnLXRuJywgJzgnLCAnLW1hJywgJzUwMCcsICctaW1hZScsICc8aW5maWxlLm1hZT4nLCAnLW9tYWUnLCAnPG91dGZpbGUubWFlPic=

>  <s_epik_input>  (1) 
W0NIM11OMVtDSDJdW0NIMl1DKD1PKVtDQEBdMShbQ0gzXSlDKD1PKVtOSF1bQ0gyXVtDSDJdW0NIMl1bQ0BASF0yW0NIMl1bQ0gyXU4oQzI9TyljKFtjSF1bY0hdW2NIXTMpW2NIXWMzW05IMl0=

>  <s_glide_docking_method>  (1) 
confgen

>  <s_i_glide_gridfile>  (1) 
gpcr_drd2_6luq_protein_autoprepared_prepared

>  <s_lp_Force_Field>  (1) 
S-OPLS

>  <s_lp_Variant>  (1) 
DiffSBDD_44_num_sample_100-5

>  <s_m_source_file>  (1) 
generated__ligand_DiffSBDD_2026-05-06_prepared.sdf

>  <GenAI_Model>  (1) 
DiffSBDD

>  <Protein>  (1) 
generic_title2

$$$$
DiffSBDD_40_num_sample_100
     RDKit          3D

  0  0  0  0  0  0  0  0  0  0999 V3000
M  V30 BEGIN CTAB
M  V30 COUNTS 62 66 0 0 1
M  V30 BEGIN ATOM
M  V30 1 F 13.068277 9.369302 -5.007395 0
M  V30 2 C 8.687410 5.965976 -11.817523 0 CFG=2
M  V30 3 O 6.141055 5.992851 -15.284565 0
M  V30 4 C 8.651212 1.372099 -17.057186 0
M  V30 5 C 9.834815 5.557549 -12.720520 0
M  V30 6 C 6.629169 6.000024 -14.156346 0
M  V30 7 C 7.279436 5.438864 -12.015414 0 CFG=1
M  V30 8 C 10.413092 7.499694 -8.823619 0
M  V30 9 C 6.164238 -0.730177 -17.283300 0
M  V30 10 F 11.034850 9.846727 -4.512197 0
M  V30 11 O 7.696270 3.827613 -13.817763 0
M  V30 12 C 8.096212 3.257242 -18.613670 0
M  V30 13 F 11.834837 7.881567 -4.057535 0
M  V30 14 O 4.234810 -0.230704 -15.891645 0
M  V30 15 C 12.021711 8.751255 -7.482558 0
M  V30 16 N 9.947784 7.103481 -10.129730 0
M  V30 17 N 7.756711 0.825976 -16.033499 0
M  V30 18 C 11.834818 8.875278 -4.945461 0
M  V30 19 C 10.201678 7.558204 -6.383200 0
M  V30 20 C 7.592157 6.934061 -12.254582 0 CFG=2
M  V30 21 C 9.100310 6.075319 -10.383162 0
M  V30 22 C 5.380974 4.067073 -13.021571 0
M  V30 23 C 6.726753 4.746909 -13.298893 0 CFG=2
M  V30 24 O 8.709942 5.281932 -9.528307 0
M  V30 25 C 6.423297 0.568225 -16.551692 0 CFG=2
M  V30 26 C 8.337993 2.824691 -17.365595 0
M  V30 27 C 8.321865 3.751759 -16.170448 0
M  V30 28 C 5.610623 -0.505483 -15.891700 0 CFG=2
M  V30 29 C 9.733814 7.113882 -7.634334 0
M  V30 30 C 7.434735 3.164349 -15.055145 0 CFG=1
M  V30 31 C 11.553083 8.321001 -8.737789 0
M  V30 32 C 7.714378 1.661516 -14.825833 0
M  V30 33 N 7.113505 7.058362 -13.565928 0
M  V30 34 C 11.342741 8.380161 -6.303743 0
M  V30 35 H 9.679467 1.326018 -16.697869 0
M  V30 36 H 8.608402 0.766601 -17.963436 0
M  V30 37 H 9.566282 5.660763 -13.770790 0
M  V30 38 H 10.720495 6.169596 -12.547362 0
M  V30 39 H 10.095454 4.514744 -12.536796 0
M  V30 40 H 6.708353 5.216120 -11.114323 0
M  V30 41 H 6.988266 -1.434224 -17.382046 0
M  V30 42 H 5.469377 -0.705856 -18.121140 0
M  V30 43 H 7.876554 4.296267 -18.810944 0
M  V30 44 H 8.114818 2.576885 -19.451886 0
M  V30 45 H 3.771006 -1.052296 -15.826817 0
M  V30 46 H 12.899835 9.369290 -7.423472 0
M  V30 47 H 10.289738 7.634749 -10.915252 0
M  V30 48 H 9.677529 7.275361 -5.484668 0
M  V30 49 H 7.206540 7.641300 -11.523673 0
M  V30 50 H 4.830896 4.569123 -12.227381 0
M  V30 51 H 4.734217 4.060903 -13.891647 0
M  V30 52 H 5.534377 3.036054 -12.704273 0
M  V30 53 H 5.915685 1.466880 -16.896178 0
M  V30 54 H 9.348095 3.862926 -15.824333 0
M  V30 55 H 7.988203 4.744357 -16.467213 0
M  V30 56 H 6.000456 -1.030682 -15.023069 0
M  V30 57 H 8.846570 6.507699 -7.673398 0
M  V30 58 H 6.393894 3.269728 -15.346670 0
M  V30 59 H 12.072553 8.620111 -9.636486 0
M  V30 60 H 6.970291 1.264090 -14.134066 0
M  V30 61 H 8.653665 1.552771 -14.295681 0
M  V30 62 H 7.115633 7.958445 -14.020602 0
M  V30 END ATOM
M  V30 BEGIN BOND
M  V30 1 1 2 5 CFG=3
M  V30 2 2 6 3
M  V30 3 1 7 2
M  V30 4 1 16 8
M  V30 5 1 17 4
M  V30 6 1 18 1
M  V30 7 1 18 10
M  V30 8 1 18 13
M  V30 9 1 20 2
M  V30 10 1 20 7
M  V30 11 1 21 2
M  V30 12 1 21 16
M  V30 13 1 23 6
M  V30 14 1 23 7
M  V30 15 1 23 11 CFG=3
M  V30 16 1 23 22
M  V30 17 2 24 21
M  V30 18 1 25 9
M  V30 19 1 25 17
M  V30 20 1 26 4
M  V30 21 2 26 12
M  V30 22 1 27 26
M  V30 23 1 28 9
M  V30 24 1 28 14
M  V30 25 1 28 25
M  V30 26 1 29 8
M  V30 27 2 29 19
M  V30 28 1 30 11
M  V30 29 1 30 27
M  V30 30 2 31 8
M  V30 31 1 31 15
M  V30 32 1 32 17
M  V30 33 1 32 30
M  V30 34 1 33 6
M  V30 35 1 33 20
M  V30 36 2 34 15
M  V30 37 1 34 18
M  V30 38 1 34 19
M  V30 39 1 35 4
M  V30 40 1 36 4
M  V30 41 1 37 5
M  V30 42 1 38 5
M  V30 43 1 39 5
M  V30 44 1 7 40 CFG=1
M  V30 45 1 41 9
M  V30 46 1 42 9
M  V30 47 1 43 12
M  V30 48 1 44 12
M  V30 49 1 45 14
M  V30 50 1 46 15
M  V30 51 1 47 16
M  V30 52 1 48 19
M  V30 53 1 20 49 CFG=1
M  V30 54 1 50 22
M  V30 55 1 51 22
M  V30 56 1 52 22
M  V30 57 1 25 53 CFG=3
M  V30 58 1 54 27
M  V30 59 1 55 27
M  V30 60 1 28 56 CFG=1
M  V30 61 1 57 29
M  V30 62 1 30 58 CFG=3
M  V30 63 1 59 31
M  V30 64 1 60 32
M  V30 65 1 61 32
M  V30 66 1 62 33
M  V30 END BOND
M  V30 END CTAB
M  END
>  <i_epik_Tot_Q>  (1) 
0

>  <i_epik_Tot_abs_Q>  (1) 
0

>  <i_i_glide_confnum>  (1) 
128

>  <i_i_glide_lignum>  (1) 
72

>  <i_i_glide_posenum>  (1) 
129

>  <i_i_glide_rotatable_bonds>  (1) 
8

>  <i_lp_mmshare_version>  (1) 
72125

>  <i_m_source_file_index>  (1) 
41

>  <i_f3d_flags>  (1) 
0

>  <num_sample>  (1) 
100

>  <b_lp_Chiralities_Consistent>  (1) 
1

>  <r_epik_Charging_Adjusted_Penalty>  (1) 
0.63391490954422869

>  <r_epik_Ionization_Penalty>  (1) 
0.63391730383191769

>  <r_epik_Ionization_Penalty_Charging>  (1) 
0

>  <r_epik_Ionization_Penalty_Neutral>  (1) 
0.63391730383191769

>  <r_epik_State_Penalty>  (1) 
0.63391490954422869

>  <r_glide_ring_energy>  (1) 
0

>  <r_i_docking_score>  (1) 
-5.5739626013742445

>  <r_i_glide_ecoul>  (1) 
-0.32186660095033437

>  <r_i_glide_eff_state_penalty>  (1) 
0.63391490954422869

>  <r_i_glide_einternal>  (1) 
2.049042199503365

>  <r_i_glide_emodel>  (1) 
-60.564121761330007

>  <r_i_glide_emodel_strain>  (1) 
0.86472619403657802

>  <r_i_glide_energy>  (1) 
-45.988648932617558

>  <r_i_glide_erotb>  (1) 
0.52901650880821682

>  <r_i_glide_esite>  (1) 
-0.15647668476456747

>  <r_i_glide_evdw>  (1) 
-45.666782331667221

>  <r_i_glide_gscore>  (1) 
-6.2078775109184736

>  <r_i_glide_gscore_strain>  (1) 
0

>  <r_i_glide_hbond>  (1) 
0

>  <r_i_glide_ligand_efficiency>  (1) 
-0.1639400765110072

>  <r_i_glide_ligand_efficiency_ln>  (1) 
-1.2314446829988031

>  <r_i_glide_ligand_efficiency_sa>  (1) 
-0.53110220656739249

>  <r_i_glide_lipo>  (1) 
-2.3197642992811427

>  <r_i_glide_metal>  (1) 
-0

>  <r_i_glide_rewards>  (1) 
-1.92903392895507

>  <r_lp_Energy>  (1) 
30.893163999999999

>  <s_epik_cmdline>  (1) 
J2VwaWtfcHl0aG9uJywgJy1waHQnLCAnMS4wJywgJy1waCcsICc3LjQnLCAnLXRuJywgJzgnLCAnLW1hJywgJzUwMCcsICctaW1hZScsICc8aW5maWxlLm1hZT4nLCAnLW9tYWUnLCAnPG91dGZpbGUubWFlPic=

>  <s_epik_input>  (1) 
RkMoRikoRiljKFtjSF1bY0hdMSlbY0hdW2NIXWMxW05IXUMoPU8pW0NAXTIoW0NIM10pW0NASF0oW0NASF0yMylbTkhdQyg9TylbQ0BAXTMoW0NIM10pT1tDQEhdKFtDSDJdNClbQ0gyXUMoPVtDSDJdKVtDSDJdTjRbQ0BIXTVbQ0gyXVtDQEBIXTVbT0hd

>  <s_glide_docking_method>  (1) 
confgen

>  <s_i_glide_gridfile>  (1) 
gpcr_drd2_6luq_protein_autoprepared_prepared

>  <s_lp_Force_Field>  (1) 
S-OPLS

>  <s_lp_Variant>  (1) 
DiffSBDD_40_num_sample_100-3

>  <s_m_source_file>  (1) 
generated__ligand_DiffSBDD_2026-05-06_prepared.sdf

>  <GenAI_Model>  (1) 
DiffSBDD

>  <Protein>  (1) 
generic_title2

$$$$
DiffSBDD_55_num_sample_100
     RDKit          3D

  0  0  0  0  0  0  0  0  0  0999 V3000
M  V30 BEGIN CTAB
M  V30 COUNTS 51 54 0 0 1
M  V30 BEGIN ATOM
M  V30 1 O 6.234836 1.405023 -12.357946 0
M  V30 2 C 11.792133 8.505692 -6.891537 0
M  V30 3 C 7.771021 4.968668 -11.414060 0
M  V30 4 C 10.440181 6.175868 -12.456921 0
M  V30 5 C 6.771023 4.685305 -14.104349 0 CFG=2
M  V30 6 C 6.279548 3.713613 -13.037157 0 CFG=1
M  V30 7 S 9.825616 6.658692 -6.975251 0
M  V30 8 C 10.810685 7.788658 -5.957933 0
M  V30 9 C 11.123872 8.569347 -8.236801 0
M  V30 10 C 6.752214 0.197747 -14.260674 0
M  V30 11 N 7.904430 6.147546 -12.314885 0 CFG=1 CHG=1
M  V30 12 C 6.968854 2.330388 -13.134338 0 CFG=2
M  V30 13 C 6.408017 4.310415 -11.619234 0 CFG=2
M  V30 14 C 7.010485 1.675446 -14.523483 0
M  V30 15 C 6.634806 0.110047 -12.743570 0
M  V30 16 C 9.806691 7.114222 -9.713636 0
M  V30 17 C 9.142909 6.945940 -12.137049 0 CFG=1
M  V30 18 C 9.834962 7.794805 -8.375428 0 CFG=1
M  V30 19 C 8.248560 4.803689 -14.443474 0
M  V30 20 O 11.603892 9.212182 -9.169169 0
M  V30 21 O 5.434840 5.304926 -11.383681 0
M  V30 22 C 9.168748 7.609285 -10.782462 0
M  V30 23 C 7.552080 5.945455 -13.753523 0 CFG=1
M  V30 24 H 12.120258 9.478774 -6.525938 0
M  V30 25 H 12.643950 7.872435 -7.091595 0
M  V30 26 H 7.851578 5.283951 -10.373279 0
M  V30 27 H 8.569758 4.247236 -11.575907 0
M  V30 28 H 11.316551 6.787522 -12.240350 0
M  V30 29 H 10.538076 5.251100 -11.891668 0
M  V30 30 H 10.505617 5.914318 -13.510271 0
M  V30 31 H 6.102635 4.756180 -14.960362 0
M  V30 32 H 5.218471 3.548553 -13.230981 0
M  V30 33 H 10.142452 8.512627 -5.492124 0
M  V30 34 H 11.321691 7.241083 -5.165606 0
M  V30 35 H 7.545602 -0.444867 -14.644173 0
M  V30 36 H 5.816410 -0.111947 -14.728766 0
M  V30 37 H 7.983304 2.365163 -12.735318 0
M  V30 38 H 6.234708 3.533353 -10.874122 0
M  V30 39 H 6.234843 2.067990 -15.178880 0
M  V30 40 H 7.971094 1.841662 -15.011926 0
M  V30 41 H 7.600278 -0.115054 -12.291733 0
M  V30 42 H 5.910704 -0.630828 -12.409991 0
M  V30 43 H 10.339049 6.180346 -9.789513 0
M  V30 44 H 9.074992 7.789577 -12.820926 0
M  V30 45 H 9.008055 8.498589 -8.284521 0
M  V30 46 H 8.505763 4.938582 -15.491999 0
M  V30 47 H 8.953497 4.195791 -13.881819 0
M  V30 48 H 5.406355 5.492599 -10.453176 0
M  V30 49 H 8.634857 8.545271 -10.694234 0
M  V30 50 H 7.363025 6.864929 -14.304884 0
M  V30 51 H 7.162407 6.747985 -11.976414 0
M  V30 END ATOM
M  V30 BEGIN BOND
M  V30 1 1 6 5
M  V30 2 1 8 2
M  V30 3 1 8 7
M  V30 4 1 9 2
M  V30 5 1 11 3
M  V30 6 1 12 1
M  V30 7 1 12 6
M  V30 8 1 13 3
M  V30 9 1 13 6
M  V30 10 1 14 10
M  V30 11 1 14 12
M  V30 12 1 15 1
M  V30 13 1 15 10
M  V30 14 1 17 4
M  V30 15 1 17 11
M  V30 16 1 18 7
M  V30 17 1 18 9
M  V30 18 1 18 16
M  V30 19 1 19 5
M  V30 20 2 20 9
M  V30 21 1 21 13
M  V30 22 2 22 16
M  V30 23 1 22 17
M  V30 24 1 23 5
M  V30 25 1 23 11
M  V30 26 1 23 19
M  V30 27 1 24 2
M  V30 28 1 25 2
M  V30 29 1 26 3
M  V30 30 1 27 3
M  V30 31 1 28 4
M  V30 32 1 29 4
M  V30 33 1 30 4
M  V30 34 1 5 31 CFG=3
M  V30 35 1 6 32 CFG=3
M  V30 36 1 33 8
M  V30 37 1 34 8
M  V30 38 1 35 10
M  V30 39 1 36 10
M  V30 40 1 12 37 CFG=1
M  V30 41 1 13 38 CFG=1
M  V30 42 1 39 14
M  V30 43 1 40 14
M  V30 44 1 41 15
M  V30 45 1 42 15
M  V30 46 1 43 16
M  V30 47 1 17 44 CFG=3
M  V30 48 1 18 45 CFG=1
M  V30 49 1 46 19
M  V30 50 1 47 19
M  V30 51 1 48 21
M  V30 52 1 49 22
M  V30 53 1 23 50 CFG=3
M  V30 54 1 11 51 CFG=1
M  V30 END BOND
M  V30 END CTAB
M  END
>  <i_epik_Tot_Q>  (1) 
1

>  <i_epik_Tot_abs_Q>  (1) 
1

>  <i_i_glide_confnum>  (1) 
209

>  <i_i_glide_lignum>  (1) 
101

>  <i_i_glide_posenum>  (1) 
170

>  <i_i_glide_rotatable_bonds>  (1) 
5

>  <i_lp_mmshare_version>  (1) 
72125

>  <i_m_source_file_index>  (1) 
56

>  <i_f3d_flags>  (1) 
0

>  <num_sample>  (1) 
100

>  <b_lp_Chiralities_Consistent>  (1) 
1

>  <r_epik_Charging_Adjusted_Penalty>  (1) 
0.1887110856522376

>  <r_epik_Ionization_Penalty>  (1) 
0.094355642401006162

>  <r_epik_Ionization_Penalty_Charging>  (1) 
0.094355542826118813

>  <r_epik_Ionization_Penalty_Neutral>  (1) 
9.9574887353862298e-08

>  <r_epik_State_Penalty>  (1) 
0.094355542826118799

>  <r_glide_ring_energy>  (1) 
0

>  <r_i_docking_score>  (1) 
-5.5672081986637245

>  <r_i_glide_ecoul>  (1) 
-3.8433248011786114

>  <r_i_glide_eff_state_penalty>  (1) 
0.094355542826118799

>  <r_i_glide_einternal>  (1) 
3.6552667664542868

>  <r_i_glide_emodel>  (1) 
-51.642155160830626

>  <r_i_glide_emodel_strain>  (1) 
0.27500914249676356

>  <r_i_glide_energy>  (1) 
-40.404413243607841

>  <r_i_glide_erotb>  (1) 
0.49519417565235591

>  <r_i_glide_esite>  (1) 
-0.034958522435270985

>  <r_i_glide_evdw>  (1) 
-36.561088442429231

>  <r_i_glide_gscore>  (1) 
-5.661563741489843

>  <r_i_glide_gscore_strain>  (1) 
0

>  <r_i_glide_hbond>  (1) 
0

>  <r_i_glide_ligand_efficiency>  (1) 
-0.24205253037668367

>  <r_i_glide_ligand_efficiency_ln>  (1) 
-1.3462014230898645

>  <r_i_glide_ligand_efficiency_sa>  (1) 
-0.68836519852776878

>  <r_i_glide_lipo>  (1) 
-1.550192796941297

>  <r_i_glide_metal>  (1) 
-0

>  <r_i_glide_rewards>  (1) 
-2.167053455467379

>  <r_lp_Energy>  (1) 
19.169269

>  <r_lp_tautomer_probability>  (1) 
0.99995000000000001

>  <s_epik_cmdline>  (1) 
J2VwaWtfcHl0aG9uJywgJy1waHQnLCAnMS4wJywgJy1waCcsICc3LjQnLCAnLXRuJywgJzgnLCAnLW1hJywgJzUwMCcsICctaW1hZScsICc8aW5maWxlLm1hZT4nLCAnLW9tYWUnLCAnPG91dGZpbGUubWFlPic=

>  <s_epik_input>  (1) 
W0NIMl0xW0NIMl1bQ0gyXU9bQ0BASF0xW0NASF0yW0NASF0oW09IXSlbQ0gyXU4oW0NASF0oW0NASF0yMylbQ0gyXTMpW0NASF0oW0NIM10pXFtDSF09W0NIXVxbQ0BIXTRTW0NIMl1bQ0gyXUM0PU8=

>  <s_glide_docking_method>  (1) 
confgen

>  <s_i_glide_gridfile>  (1) 
gpcr_drd2_6luq_protein_autoprepared_prepared

>  <s_lp_Force_Field>  (1) 
S-OPLS

>  <s_lp_Variant>  (1) 
DiffSBDD_55_num_sample_100-2

>  <s_m_source_file>  (1) 
generated__ligand_DiffSBDD_2026-05-06_prepared.sdf

>  <GenAI_Model>  (1) 
DiffSBDD

>  <Protein>  (1) 
generic_title2

$$$$
DiffSBDD_55_num_sample_100
     RDKit          3D

  0  0  0  0  0  0  0  0  0  0999 V3000
M  V30 BEGIN CTAB
M  V30 COUNTS 51 54 0 0 1
M  V30 BEGIN ATOM
M  V30 1 O 9.434842 8.708448 -8.072183 0
M  V30 2 C 6.205429 0.156158 -15.082137 0
M  V30 3 C 8.976114 5.010050 -9.934004 0
M  V30 4 C 6.305896 4.302295 -11.460333 0
M  V30 5 C 10.283534 7.336704 -11.033355 0 CFG=2
M  V30 6 C 10.466434 7.063627 -9.539262 0 CFG=1
M  V30 7 S 7.660571 2.313113 -15.889682 0
M  V30 8 C 6.575229 0.935446 -16.347736 0
M  V30 9 C 6.330095 1.114945 -13.911426 0
M  V30 10 C 10.937166 8.776600 -6.341940 0
M  V30 11 N 8.409306 5.598326 -11.170034 0 CFG=2 CHG=1
M  V30 12 C 10.658964 8.347945 -8.699244 0 CFG=2
M  V30 13 C 9.427300 6.076788 -8.958718 0 CFG=2
M  V30 14 C 11.674988 8.221607 -7.545772 0
M  V30 15 C 9.502139 8.419019 -6.686393 0
M  V30 16 C 8.294408 2.406169 -13.225721 0
M  V30 17 C 7.700529 4.611753 -12.051325 0 CFG=1
M  V30 18 C 7.110975 2.398982 -14.166140 0 CFG=1
M  V30 19 C 9.067291 7.915294 -11.717532 0
M  V30 20 O 5.834875 0.864823 -12.814842 0
M  V30 21 O 10.010981 5.380262 -7.891653 0
M  V30 22 C 8.556520 3.356497 -12.309706 0
M  V30 23 C 9.391545 6.447068 -11.891689 0 CFG=1
M  V30 24 H 5.205571 -0.275250 -15.140986 0
M  V30 25 H 6.914086 -0.654088 -14.921238 0
M  V30 26 H 9.834844 4.378440 -10.136864 0
M  V30 27 H 8.220095 4.398664 -9.445336 0
M  V30 28 H 5.694413 3.696475 -12.125424 0
M  V30 29 H 6.360337 3.769333 -10.511517 0
M  V30 30 H 5.749824 5.223252 -11.278717 0
M  V30 31 H 11.220368 7.642968 -11.491610 0
M  V30 32 H 11.433206 6.569308 -9.491683 0
M  V30 33 H 5.677583 1.341012 -16.814559 0
M  V30 34 H 7.064358 0.297662 -17.084039 0
M  V30 35 H 11.049780 9.860182 -6.291543 0
M  V30 36 H 11.268083 8.347163 -5.396341 0
M  V30 37 H 10.960248 9.173716 -9.345332 0
M  V30 38 H 8.537035 6.569300 -8.588849 0
M  V30 39 H 11.930751 7.178400 -7.357770 0
M  V30 40 H 12.603850 8.756551 -7.747252 0
M  V30 41 H 8.754634 8.969290 -6.123917 0
M  V30 42 H 9.311169 7.365968 -6.491503 0
M  V30 43 H 8.971840 1.568146 -13.312863 0
M  V30 44 H 7.532497 5.097177 -13.013973 0
M  V30 45 H 6.460823 3.262504 -14.047043 0
M  V30 46 H 9.244606 8.569301 -12.566628 0
M  V30 47 H 8.234833 8.212520 -11.091670 0
M  V30 48 H 9.326502 5.120022 -7.292570 0
M  V30 49 H 9.434834 3.237363 -11.705464 0
M  V30 50 H 9.778282 6.057327 -12.832179 0
M  V30 51 H 7.702971 6.251263 -10.844343 0
M  V30 END ATOM
M  V30 BEGIN BOND
M  V30 1 1 6 5
M  V30 2 1 8 2
M  V30 3 1 8 7
M  V30 4 1 9 2
M  V30 5 1 11 3
M  V30 6 1 12 1
M  V30 7 1 12 6
M  V30 8 1 13 3
M  V30 9 1 13 6
M  V30 10 1 14 10
M  V30 11 1 14 12
M  V30 12 1 15 1
M  V30 13 1 15 10
M  V30 14 1 17 4
M  V30 15 1 17 11
M  V30 16 1 18 7
M  V30 17 1 18 9
M  V30 18 1 18 16
M  V30 19 1 19 5
M  V30 20 2 20 9
M  V30 21 1 21 13
M  V30 22 2 22 16
M  V30 23 1 22 17
M  V30 24 1 23 5
M  V30 25 1 23 11
M  V30 26 1 23 19
M  V30 27 1 24 2
M  V30 28 1 25 2
M  V30 29 1 26 3
M  V30 30 1 27 3
M  V30 31 1 28 4
M  V30 32 1 29 4
M  V30 33 1 30 4
M  V30 34 1 5 31 CFG=3
M  V30 35 1 6 32 CFG=3
M  V30 36 1 33 8
M  V30 37 1 34 8
M  V30 38 1 35 10
M  V30 39 1 36 10
M  V30 40 1 12 37 CFG=3
M  V30 41 1 13 38 CFG=1
M  V30 42 1 39 14
M  V30 43 1 40 14
M  V30 44 1 41 15
M  V30 45 1 42 15
M  V30 46 1 43 16
M  V30 47 1 17 44 CFG=3
M  V30 48 1 18 45 CFG=3
M  V30 49 1 46 19
M  V30 50 1 47 19
M  V30 51 1 48 21
M  V30 52 1 49 22
M  V30 53 1 23 50 CFG=3
M  V30 54 1 11 51 CFG=1
M  V30 END BOND
M  V30 END CTAB
M  END
>  <i_epik_Tot_Q>  (1) 
1

>  <i_epik_Tot_abs_Q>  (1) 
1

>  <i_i_glide_confnum>  (1) 
134

>  <i_i_glide_lignum>  (1) 
102

>  <i_i_glide_posenum>  (1) 
368

>  <i_i_glide_rotatable_bonds>  (1) 
5

>  <i_lp_mmshare_version>  (1) 
72125

>  <i_m_source_file_index>  (1) 
56

>  <i_f3d_flags>  (1) 
0

>  <num_sample>  (1) 
100

>  <b_lp_Chiralities_Consistent>  (1) 
1

>  <r_epik_Charging_Adjusted_Penalty>  (1) 
0.1887110856522376

>  <r_epik_Ionization_Penalty>  (1) 
0.094355642401006162

>  <r_epik_Ionization_Penalty_Charging>  (1) 
0.094355542826118813

>  <r_epik_Ionization_Penalty_Neutral>  (1) 
9.9574887353862298e-08

>  <r_epik_State_Penalty>  (1) 
0.094355542826118799

>  <r_glide_ring_energy>  (1) 
1.2361918707854085

>  <r_i_docking_score>  (1) 
-5.5652711293270452

>  <r_i_glide_ecoul>  (1) 
-4.4729263467193645

>  <r_i_glide_eff_state_penalty>  (1) 
0.094355542826118799

>  <r_i_glide_einternal>  (1) 
11.23135455121626

>  <r_i_glide_emodel>  (1) 
-47.959470888273984

>  <r_i_glide_emodel_strain>  (1) 
2.1847523444028738

>  <r_i_glide_energy>  (1) 
-39.692883016487471

>  <r_i_glide_erotb>  (1) 
0.49519417565235591

>  <r_i_glide_esite>  (1) 
-0.045502190344051591

>  <r_i_glide_evdw>  (1) 
-35.219956669768109

>  <r_i_glide_gscore>  (1) 
-5.6596266721531636

>  <r_i_glide_gscore_strain>  (1) 
0

>  <r_i_glide_hbond>  (1) 
-0.078329290877248436

>  <r_i_glide_ligand_efficiency>  (1) 
-0.24196830997074109

>  <r_i_glide_ligand_efficiency_ln>  (1) 
-1.3457330221598818

>  <r_i_glide_ligand_efficiency_sa>  (1) 
-0.68812568689627895

>  <r_i_glide_lipo>  (1) 
-1.3714607066830624

>  <r_i_glide_metal>  (1) 
-0

>  <r_i_glide_rewards>  (1) 
-2.2275918744048466

>  <r_lp_Energy>  (1) 
23.901119999999999

>  <r_lp_tautomer_probability>  (1) 
0.99995000000000001

>  <s_epik_cmdline>  (1) 
J2VwaWtfcHl0aG9uJywgJy1waHQnLCAnMS4wJywgJy1waCcsICc3LjQnLCAnLXRuJywgJzgnLCAnLW1hJywgJzUwMCcsICctaW1hZScsICc8aW5maWxlLm1hZT4nLCAnLW9tYWUnLCAnPG91dGZpbGUubWFlPic=

>  <s_epik_input>  (1) 
W0NIMl0xW0NIMl1bQ0gyXU9bQ0BASF0xW0NASF0yW0NASF0oW09IXSlbQ0gyXU4oW0NASF0oW0NASF0yMylbQ0gyXTMpW0NASF0oW0NIM10pL1tDSF09W0NIXVxbQ0BIXTRTW0NIMl1bQ0gyXUM0PU8=

>  <s_glide_docking_method>  (1) 
confgen

>  <s_i_glide_gridfile>  (1) 
gpcr_drd2_6luq_protein_autoprepared_prepared

>  <s_lp_Force_Field>  (1) 
S-OPLS

>  <s_lp_Variant>  (1) 
DiffSBDD_55_num_sample_100-3

>  <s_m_source_file>  (1) 
generated__ligand_DiffSBDD_2026-05-06_prepared.sdf

>  <GenAI_Model>  (1) 
DiffSBDD

>  <Protein>  (1) 
generic_title2

$$$$
DiffSBDD_44_num_sample_100
     RDKit          3D

  0  0  0  0  0  0  0  0  0  0999 V3000
M  V30 BEGIN CTAB
M  V30 COUNTS 56 58 0 0 1
M  V30 BEGIN ATOM
M  V30 1 C 11.201123 5.664251 -18.475372 0
M  V30 2 C 11.093746 4.830016 -17.171565 0 CFG=1
M  V30 3 C 10.216997 6.352662 -6.850027 0
M  V30 4 C 11.323450 8.882663 -6.291666 0
M  V30 5 C 10.919978 8.569353 -7.605070 0
M  V30 6 C 8.451426 4.255200 -13.079068 0
M  V30 7 C 11.265760 3.359266 -17.523807 0
M  V30 8 N 12.292253 4.984075 -16.291667 0 CFG=1 CHG=1
M  V30 9 C 9.401305 4.649365 -11.931199 0
M  V30 10 C 9.309828 5.907065 -9.687477 0
M  V30 11 O 9.034703 4.944960 -8.983471 0
M  V30 12 C 11.182711 7.935017 -5.266972 0
M  V30 13 N 11.858457 10.136138 -6.007014 0
M  V30 14 C 12.662577 2.816879 -17.357647 0
M  V30 15 N 9.922240 7.026497 -9.275577 0
M  V30 16 C 8.492379 5.163822 -14.320041 0
M  V30 17 O 8.736275 5.369266 -17.104757 0
M  V30 18 C 9.642662 7.252399 -11.598097 0
M  V30 19 C 13.355817 4.037503 -16.732432 0
M  V30 20 N 9.715782 4.969301 -15.102232 0
M  V30 21 C 12.768157 6.364056 -16.047300 0
M  V30 22 C 8.958569 5.920093 -11.161836 0 CFG=1
M  V30 23 C 10.109026 8.013792 -10.319774 0
M  V30 24 C 10.354606 7.306800 -7.899154 0
M  V30 25 C 9.736985 5.080099 -16.449005 0
M  V30 26 C 10.635150 6.674055 -5.545020 0
M  V30 27 O 10.335764 2.659436 -17.921056 0
M  V30 28 H 10.413472 5.398178 -19.182560 0
M  V30 29 H 11.108086 6.733698 -18.291141 0
M  V30 30 H 12.150953 5.504500 -18.987355 0
M  V30 31 H 9.800763 5.385698 -7.024803 0
M  V30 32 H 11.034839 9.306736 -8.383393 0
M  V30 33 H 8.659159 3.229035 -13.384116 0
M  V30 34 H 7.431836 4.231972 -12.691742 0
M  V30 35 H 10.421931 4.757032 -12.291667 0
M  V30 36 H 9.434182 3.799345 -11.247440 0
M  V30 37 H 11.495379 8.175532 -4.261674 0
M  V30 38 H 11.991013 10.428284 -5.050401 0
M  V30 39 H 11.803718 10.877230 -6.690037 0
M  V30 40 H 12.654378 1.954599 -16.691666 0
M  V30 41 H 13.099378 2.530761 -18.314602 0
M  V30 42 H 7.613098 4.933301 -14.924438 0
M  V30 43 H 8.396095 6.209760 -14.033487 0
M  V30 44 H 10.504220 7.052472 -12.235763 0
M  V30 45 H 8.958273 7.868459 -12.182676 0
M  V30 46 H 13.990834 3.756059 -15.891668 0
M  V30 47 H 13.992524 4.515669 -17.478632 0
M  V30 48 H 10.558414 4.725641 -14.601388 0
M  V30 49 H 13.154220 6.834091 -16.952621 0
M  V30 50 H 11.951176 6.969303 -15.660096 0
M  V30 51 H 13.563913 6.363376 -15.301094 0
M  V30 52 H 7.873719 6.031911 -11.200472 0
M  V30 53 H 9.466839 8.874042 -10.122620 0
M  V30 54 H 11.147004 8.337332 -10.406008 0
M  V30 55 H 10.529113 5.947569 -4.752495 0
M  V30 56 H 12.022746 4.619875 -15.383419 0
M  V30 END ATOM
M  V30 BEGIN BOND
M  V30 1 1 2 1 CFG=3
M  V30 2 2 5 4
M  V30 3 1 7 2
M  V30 4 1 8 2
M  V30 5 1 9 6
M  V30 6 2 11 10
M  V30 7 1 12 4
M  V30 8 1 13 4
M  V30 9 1 14 7
M  V30 10 1 15 10
M  V30 11 1 16 6
M  V30 12 1 19 8
M  V30 13 1 19 14
M  V30 14 1 20 16
M  V30 15 1 21 8
M  V30 16 1 22 9
M  V30 17 1 22 10
M  V30 18 1 22 18
M  V30 19 1 23 15
M  V30 20 1 23 18
M  V30 21 2 24 3
M  V30 22 1 24 5
M  V30 23 1 24 15
M  V30 24 1 25 2
M  V30 25 2 25 17
M  V30 26 1 25 20
M  V30 27 1 26 3
M  V30 28 2 26 12
M  V30 29 2 27 7
M  V30 30 1 28 1
M  V30 31 1 29 1
M  V30 32 1 30 1
M  V30 33 1 31 3
M  V30 34 1 32 5
M  V30 35 1 33 6
M  V30 36 1 34 6
M  V30 37 1 35 9
M  V30 38 1 36 9
M  V30 39 1 37 12
M  V30 40 1 38 13
M  V30 41 1 39 13
M  V30 42 1 40 14
M  V30 43 1 41 14
M  V30 44 1 42 16
M  V30 45 1 43 16
M  V30 46 1 44 18
M  V30 47 1 45 18
M  V30 48 1 46 19
M  V30 49 1 47 19
M  V30 50 1 48 20
M  V30 51 1 49 21
M  V30 52 1 50 21
M  V30 53 1 51 21
M  V30 54 1 22 52 CFG=1
M  V30 55 1 53 23
M  V30 56 1 54 23
M  V30 57 1 55 26
M  V30 58 1 8 56 CFG=1
M  V30 END BOND
M  V30 END CTAB
M  END
>  <i_epik_Tot_Q>  (1) 
1

>  <i_epik_Tot_abs_Q>  (1) 
1

>  <i_i_glide_confnum>  (1) 
188

>  <i_i_glide_lignum>  (1) 
79

>  <i_i_glide_posenum>  (1) 
105

>  <i_i_glide_rotatable_bonds>  (1) 
7

>  <i_lp_mmshare_version>  (1) 
72125

>  <i_m_source_file_index>  (1) 
45

>  <i_f3d_flags>  (1) 
0

>  <num_sample>  (1) 
100

>  <b_lp_Chiralities_Consistent>  (1) 
1

>  <r_epik_Charging_Adjusted_Penalty>  (1) 
0.87787264938008924

>  <r_epik_Ionization_Penalty>  (1) 
0.44040452980928141

>  <r_epik_Ionization_Penalty_Charging>  (1) 
0.43893632469004462

>  <r_epik_Ionization_Penalty_Neutral>  (1) 
0.0014682051192367804

>  <r_epik_State_Penalty>  (1) 
0.43893632469004457

>  <r_glide_ring_energy>  (1) 
0

>  <r_i_docking_score>  (1) 
-5.564015623554921

>  <r_i_glide_ecoul>  (1) 
-7.294512765209463

>  <r_i_glide_eff_state_penalty>  (1) 
0.43893632469004457

>  <r_i_glide_einternal>  (1) 
8.9803818575978589

>  <r_i_glide_emodel>  (1) 
-49.51734741667066

>  <r_i_glide_emodel_strain>  (1) 
0.22555132300119851

>  <r_i_glide_energy>  (1) 
-41.475279405285782

>  <r_i_glide_erotb>  (1) 
0.96983297192060391

>  <r_i_glide_esite>  (1) 
-0.19338365076932612

>  <r_i_glide_evdw>  (1) 
-34.180766640076321

>  <r_i_glide_gscore>  (1) 
-6.0029519482449656

>  <r_i_glide_gscore_strain>  (1) 
0

>  <r_i_glide_hbond>  (1) 
-0.32000000000000001

>  <r_i_glide_ligand_efficiency>  (1) 
-0.20607465272425632

>  <r_i_glide_ligand_efficiency_ln>  (1) 
-1.295211107196945

>  <r_i_glide_ligand_efficiency_sa>  (1) 
-0.61822395817276909

>  <r_i_glide_lipo>  (1) 
-1.9444345418253088

>  <r_i_glide_metal>  (1) 
-0

>  <r_i_glide_rewards>  (1) 
-1.7117514807856988

>  <r_lp_Energy>  (1) 
25.411044

>  <r_lp_tautomer_probability>  (1) 
0.99995000000000001

>  <s_epik_cmdline>  (1) 
J2VwaWtfcHl0aG9uJywgJy1waHQnLCAnMS4wJywgJy1waCcsICc3LjQnLCAnLXRuJywgJzgnLCAnLW1hJywgJzUwMCcsICctaW1hZScsICc8aW5maWxlLm1hZT4nLCAnLW9tYWUnLCAnPG91dGZpbGUubWFlPic=

>  <s_epik_input>  (1) 
W0NIM11OMVtDSDJdW0NIMl1DKD1PKVtDQEBdMShbQ0gzXSlDKD1PKVtOSF1bQ0gyXVtDSDJdW0NIMl1bQ0BASF0yW0NIMl1bQ0gyXU4oQzI9TyljKFtjSF1bY0hdW2NIXTMpW2NIXWMzW05IMl0=

>  <s_glide_docking_method>  (1) 
confgen

>  <s_i_glide_gridfile>  (1) 
gpcr_drd2_6luq_protein_autoprepared_prepared

>  <s_lp_Force_Field>  (1) 
S-OPLS

>  <s_lp_Variant>  (1) 
DiffSBDD_44_num_sample_100-4

>  <s_m_source_file>  (1) 
generated__ligand_DiffSBDD_2026-05-06_prepared.sdf

>  <GenAI_Model>  (1) 
DiffSBDD

>  <Protein>  (1) 
generic_title2

$$$$
DiffSBDD_47_num_sample_100
     RDKit          3D

  0  0  0  0  0  0  0  0  0  0999 V3000
M  V30 BEGIN CTAB
M  V30 COUNTS 61 67 0 0 1
M  V30 BEGIN ATOM
M  V30 1 C 10.491617 6.981015 -8.532794 0 CFG=1
M  V30 2 N 7.460610 4.569301 -10.598757 0
M  V30 3 N 5.086489 -1.842681 -17.608459 0
M  V30 4 C 6.075765 7.850058 -15.491713 0
M  V30 5 C 7.208001 2.168030 -17.071961 0
M  V30 6 C 9.441858 6.248995 -10.689662 0
M  V30 7 C 10.350682 7.005120 -10.012730 0
M  V30 8 C 4.234836 -1.372866 -18.521996 0
M  V30 9 N 4.636747 -0.315475 -19.201468 0
M  V30 10 N 7.755129 3.533473 -15.027812 0 CHG=1
M  V30 11 N 7.504905 5.405887 -12.807350 0
M  V30 12 N 7.763570 1.298316 -18.118468 0
M  V30 13 N 8.822085 5.535679 -12.867664 0
M  V30 14 C 6.150081 -0.918908 -17.785666 0
M  V30 15 C 5.875907 -0.003501 -18.740277 0
M  V30 16 C 8.606341 5.256384 -8.638673 0
M  V30 17 C 8.300861 2.842467 -16.224270 0
M  V30 18 N 7.333740 -0.930123 -17.091666 0
M  V30 19 C 6.884492 4.652503 -11.853848 0
M  V30 20 C 7.251531 4.899644 -15.296115 0
M  V30 21 O 5.834837 4.060357 -12.096446 0
M  V30 22 O 5.445391 6.048208 -13.943215 0
M  V30 23 F 11.211987 7.769529 -10.706480 0
M  V30 24 C 6.739252 1.102439 -19.201320 0 CFG=2
M  V30 25 C 7.441585 0.789199 -20.529602 0
M  V30 26 C 8.358810 0.030802 -17.537838 0
M  V30 27 C 9.492457 6.278593 -12.107312 0
M  V30 28 C 6.834434 5.702837 -14.058045 0 CFG=1
M  V30 29 C 6.342356 7.130737 -14.187042 0 CFG=1
M  V30 30 C 9.598561 5.996017 -7.815428 0 CFG=2
M  V30 31 C 8.507111 5.351970 -9.982697 0
M  V30 32 C 10.824693 8.243140 -7.764927 0
M  V30 33 C 9.516105 7.496113 -7.557741 0 CFG=1
M  V30 34 H 6.965524 3.974923 -9.950561 0
M  V30 35 H 6.868539 8.569303 -15.685382 0
M  V30 36 H 6.017183 7.155346 -16.328382 0
M  V30 37 H 5.130190 8.389680 -15.433862 0
M  V30 38 H 6.516548 1.602406 -16.445430 0
M  V30 39 H 6.634828 2.967003 -17.539188 0
M  V30 40 H 3.271387 -1.830610 -18.691654 0
M  V30 41 H 8.498365 3.631968 -14.348901 0
M  V30 42 H 4.124620 0.163911 -19.929428 0
M  V30 43 H 7.922629 4.613852 -8.102570 0
M  V30 44 H 8.883269 3.535284 -16.833509 0
M  V30 45 H 9.010101 2.093878 -15.891504 0
M  V30 46 H 7.561153 -1.676452 -16.440528 0
M  V30 47 H 6.411729 4.855914 -15.987861 0
M  V30 48 H 8.040893 5.461921 -15.796756 0
M  V30 49 H 6.147595 2.007551 -19.344054 0
M  V30 50 H 6.713520 0.647327 -21.328803 0
M  V30 51 H 8.100838 1.605445 -20.825307 0
M  V30 52 H 8.039534 -0.120125 -20.466411 0
M  V30 53 H 8.943563 -0.457999 -18.317552 0
M  V30 54 H 9.054813 0.216972 -16.724361 0
M  V30 55 H 10.212307 6.982400 -12.521690 0
M  V30 56 H 6.489216 7.769302 -13.320366 0
M  V30 57 H 10.086501 5.372299 -7.073159 0
M  V30 58 H 10.823907 9.172218 -8.328445 0
M  V30 59 H 11.577433 8.166131 -6.983329 0
M  V30 60 H 8.634854 8.007106 -7.925530 0
M  V30 61 H 7.021065 2.976506 -14.611173 0
M  V30 END ATOM
M  V30 BEGIN BOND
M  V30 1 1 7 1
M  V30 2 2 7 6
M  V30 3 2 8 3
M  V30 4 1 9 8
M  V30 5 1 12 5
M  V30 6 1 13 11
M  V30 7 1 14 3
M  V30 8 1 15 9
M  V30 9 2 15 14
M  V30 10 1 17 5
M  V30 11 1 17 10
M  V30 12 1 18 14
M  V30 13 1 19 2
M  V30 14 1 19 11
M  V30 15 1 20 10
M  V30 16 2 21 19
M  V30 17 1 23 7
M  V30 18 1 24 12
M  V30 19 1 24 15
M  V30 20 1 25 24
M  V30 21 1 26 12
M  V30 22 1 26 18
M  V30 23 1 27 6
M  V30 24 2 27 13
M  V30 25 1 28 11
M  V30 26 1 28 20 CFG=3
M  V30 27 1 28 22
M  V30 28 1 29 4
M  V30 29 1 29 22
M  V30 30 1 29 28
M  V30 31 1 30 1
M  V30 32 1 30 16
M  V30 33 1 31 2
M  V30 34 1 31 6
M  V30 35 2 31 16
M  V30 36 1 1 32 CFG=1
M  V30 37 1 33 1
M  V30 38 1 33 30
M  V30 39 1 33 32
M  V30 40 1 34 2
M  V30 41 1 35 4
M  V30 42 1 36 4
M  V30 43 1 37 4
M  V30 44 1 38 5
M  V30 45 1 39 5
M  V30 46 1 40 8
M  V30 47 1 41 10
M  V30 48 1 42 9
M  V30 49 1 43 16
M  V30 50 1 44 17
M  V30 51 1 45 17
M  V30 52 1 46 18
M  V30 53 1 47 20
M  V30 54 1 48 20
M  V30 55 1 24 49 CFG=3
M  V30 56 1 50 25
M  V30 57 1 51 25
M  V30 58 1 52 25
M  V30 59 1 53 26
M  V30 60 1 54 26
M  V30 61 1 55 27
M  V30 62 1 29 56 CFG=1
M  V30 63 1 30 57 CFG=1
M  V30 64 1 58 32
M  V30 65 1 59 32
M  V30 66 1 33 60 CFG=3
M  V30 67 1 61 10
M  V30 END BOND
M  V30 END CTAB
M  END
>  <i_epik_Tot_Q>  (1) 
1

>  <i_epik_Tot_abs_Q>  (1) 
1

>  <i_i_glide_confnum>  (1) 
41

>  <i_i_glide_lignum>  (1) 
87

>  <i_i_glide_posenum>  (1) 
277

>  <i_i_glide_rotatable_bonds>  (1) 
6

>  <i_lp_mmshare_version>  (1) 
72125

>  <i_m_source_file_index>  (1) 
48

>  <i_f3d_flags>  (1) 
2

>  <num_sample>  (1) 
100

>  <b_lp_Chiralities_Consistent>  (1) 
0

>  <r_epik_Charging_Adjusted_Penalty>  (1) 
0.25375292515256775

>  <r_epik_Ionization_Penalty>  (1) 
0.18021772770564537

>  <r_epik_Ionization_Penalty_Charging>  (1) 
0.12840531132269745

>  <r_epik_Ionization_Penalty_Neutral>  (1) 
0.05181241638294791

>  <r_epik_State_Penalty>  (1) 
0.12534761382987034

>  <r_glide_ring_energy>  (1) 
0

>  <r_i_docking_score>  (1) 
-5.5584558001993019

>  <r_i_glide_ecoul>  (1) 
-5.5574721120135306

>  <r_i_glide_eff_state_penalty>  (1) 
0.12534761382987034

>  <r_i_glide_einternal>  (1) 
2.1073182782074777

>  <r_i_glide_emodel>  (1) 
-58.902175613580361

>  <r_i_glide_emodel_strain>  (1) 
0.09321093228669497

>  <r_i_glide_energy>  (1) 
-44.130462384550775

>  <r_i_glide_erotb>  (1) 
0.58091350073026182

>  <r_i_glide_esite>  (1) 
-0.063970619744861068

>  <r_i_glide_evdw>  (1) 
-38.572990272537247

>  <r_i_glide_gscore>  (1) 
-5.683803414029172

>  <r_i_glide_gscore_strain>  (1) 
0

>  <r_i_glide_hbond>  (1) 
-0.32000000000000001

>  <r_i_glide_ligand_efficiency>  (1) 
-0.16843805455149399

>  <r_i_glide_ligand_efficiency_ln>  (1) 
-1.2361717898204714

>  <r_i_glide_ligand_efficiency_sa>  (1) 
-0.54027084245162682

>  <r_i_glide_lipo>  (1) 
-1.0373010054949412

>  <r_i_glide_metal>  (1) 
-0

>  <r_i_glide_rewards>  (1) 
-2.0811749590907396

>  <r_lp_Energy>  (1) 
70.574212000000003

>  <r_lp_tautomer_probability>  (1) 
0.94542902837213583

>  <s_epik_Chemistry_Notes>  (1) 
This compound has an imine and may undergo hydrolysis. This compound contains an acetal/aminal-like group ( X-CH(R)-Y where X, Y are N, S, or O) that may be acid/base labile, releasing an aldehyde.

>  <s_epik_cmdline>  (1) 
J2VwaWtfcHl0aG9uJywgJy1waHQnLCAnMS4wJywgJy1waCcsICc3LjQnLCAnLXRuJywgJzgnLCAnLW1hJywgJzUwMCcsICctaW1hZScsICc8aW5maWxlLm1hZT4nLCAnLW9tYWUnLCAnPG91dGZpbGUubWFlPic=

>  <s_epik_input>  (1) 
W0NIMl0xW0NAQEhdMltDQEhdKEMxMjMpW0NIXT1DNEMoPUMzRilbQ0hdPU5OKEMoPU8pW05IXTQpW0NAXTUoT1tDQEBIXTVbQ0gzXSlbQ0gyXVtOSF1bQ0gyXVtDSDJdTihbQ0gyXVtOSF02KVtDQEBIXShbQ0gzXSlbQ0BIXShDNjcpTj1bQ0hdTj03

>  <s_glide_docking_method>  (1) 
confgen

>  <s_i_glide_gridfile>  (1) 
gpcr_drd2_6luq_protein_autoprepared_prepared

>  <s_lp_Force_Field>  (1) 
S-OPLS

>  <s_lp_Variant>  (1) 
DiffSBDD_47_num_sample_100-1

>  <s_m_source_file>  (1) 
generated__ligand_DiffSBDD_2026-05-06_prepared.sdf

>  <GenAI_Model>  (1) 
DiffSBDD

>  <Protein>  (1) 
generic_title2

$$$$
DiffSBDD_91_num_sample_100
     RDKit          3D

  0  0  0  0  0  0  0  0  0  0999 V3000
M  V30 BEGIN CTAB
M  V30 COUNTS 91 94 0 0 1
M  V30 BEGIN ATOM
M  V30 1 C 18.810199 6.325459 -19.814326 0
M  V30 2 C 19.591489 7.492535 -19.757919 0
M  V30 3 O 17.434674 4.969366 -17.491434 0 CHG=-1
M  V30 4 C 5.863691 6.854417 -16.936645 0 CFG=2
M  V30 5 O 15.417472 4.538869 -16.670564 0
M  V30 6 F 3.511377 6.758512 -17.130352 0
M  V30 7 C 9.687811 8.213373 -10.549630 0
M  V30 8 C 16.863188 7.658625 -20.446306 0
M  V30 9 C 13.271690 5.885009 -19.368379 0 CFG=2
M  V30 10 F 5.034856 7.531036 -14.846186 0
M  V30 11 C 6.989090 6.916935 -19.804698 0 CFG=2
M  V30 12 C 8.053542 6.769166 -20.893274 0
M  V30 13 C 17.441886 6.404443 -20.153007 0
M  V30 14 O 9.967843 5.569778 -16.906571 0
M  V30 15 C 8.185035 5.002427 -10.359818 0
M  V30 16 C 7.749433 6.519116 -18.543140 0 CFG=2
M  V30 17 C 16.211144 4.765544 -17.611918 0
M  V30 18 C 8.696717 5.375732 -18.964499 0 CFG=1
M  V30 19 C 19.012549 8.742391 -20.043337 0
M  V30 20 C 11.366397 7.369032 -9.623216 0
M  V30 21 C 5.787323 6.014025 -20.029397 0
M  V30 22 C 16.597377 5.133414 -20.215594 0
M  V30 23 O 15.834080 2.360105 -19.414676 0
M  V30 24 C 8.879427 5.544940 -20.494818 0
M  V30 25 F 5.476774 5.426978 -15.089099 0
M  V30 26 S 8.234851 4.367802 -13.424901 0
M  V30 27 C 9.250696 5.760539 -9.535749 0
M  V30 28 C 5.868351 6.662013 -15.401144 0
M  V30 29 N 7.578675 5.930804 -11.313531 0
M  V30 30 F 10.447454 6.286231 -11.524496 0
M  V30 31 N 7.183477 6.854842 -13.293688 0
M  V30 32 C 14.921099 3.442121 -19.371401 0
M  V30 33 Cl 19.974622 10.169303 -19.972672 0
M  V30 34 C 10.129815 6.764930 -10.320449 0
M  V30 35 C 4.640877 6.299212 -17.672352 0 CFG=1
M  V30 36 O 6.997737 6.113505 -17.401073 0
M  V30 37 C 12.809168 7.298280 -19.761043 0
M  V30 38 C 10.556063 8.636199 -9.365043 0
M  V30 39 C 17.648636 8.826554 -20.389024 0
M  V30 40 C 9.983272 5.357255 -18.118302 0
M  V30 41 C 15.604097 4.816650 -19.041041 0 CFG=1
M  V30 42 C 12.358298 5.300858 -18.269724 0
M  V30 43 O 11.079621 5.090479 -18.834038 0
M  V30 44 C 7.216833 6.990935 -14.751965 0
M  V30 45 N 14.665576 5.956706 -18.879518 0 CHG=1
M  V30 46 C 4.585087 6.460355 -19.201961 0
M  V30 47 F 5.834837 8.169239 -17.091676 0
M  V30 48 C 7.642919 5.745258 -12.659174 0
M  V30 49 H 19.258334 5.368053 -19.594371 0
M  V30 50 H 20.637284 7.429024 -19.495385 0
M  V30 51 H 10.051558 8.569411 -11.510451 0
M  V30 52 H 8.634859 8.437681 -10.439072 0
M  V30 53 H 15.821058 7.725468 -20.718468 0
M  V30 54 H 13.221529 5.277308 -20.270216 0
M  V30 55 H 6.646661 7.950151 -19.775250 0
M  V30 56 H 8.695487 7.651982 -20.882941 0
M  V30 57 H 7.637807 6.685448 -21.897666 0
M  V30 58 H 7.407617 4.619109 -9.698320 0
M  V30 59 H 8.656682 4.126952 -10.800324 0
M  V30 60 H 8.361261 7.369340 -18.291702 0
M  V30 61 H 8.188848 4.426655 -18.792358 0
M  V30 62 H 11.668248 6.857861 -8.710098 0
M  V30 63 H 12.209614 7.532651 -10.298550 0
M  V30 64 H 5.500612 6.062046 -21.079930 0
M  V30 65 H 6.026451 4.968215 -19.832114 0
M  V30 66 H 17.282445 4.293972 -20.344172 0
M  V30 67 H 16.035020 5.171926 -21.150333 0
M  V30 68 H 15.359327 1.566378 -19.614183 0
M  V30 69 H 9.906412 5.666489 -20.836529 0
M  V30 70 H 8.487598 4.660064 -20.995412 0
M  V30 71 H 8.743047 6.291601 -8.729676 0
M  V30 72 H 9.879890 5.022805 -9.040210 0
M  V30 73 H 7.192215 6.799952 -10.950116 0
M  V30 74 H 6.851083 7.631247 -12.741768 0
M  V30 75 H 14.418739 3.465487 -20.338878 0
M  V30 76 H 14.173909 3.165058 -18.632568 0
M  V30 77 H 4.635278 5.248275 -17.491727 0
M  V30 78 H 11.787865 7.290959 -20.141901 0
M  V30 79 H 12.834127 7.981890 -18.911788 0
M  V30 80 H 13.438421 7.718351 -20.545423 0
M  V30 81 H 11.109239 9.567475 -9.492134 0
M  V30 82 H 10.013946 8.612038 -8.417119 0
M  V30 83 H 17.205966 9.786333 -20.612588 0
M  V30 84 H 12.719242 4.355214 -17.875271 0
M  V30 85 H 12.325117 5.991273 -17.424912 0
M  V30 86 H 8.036162 6.435437 -15.203151 0
M  V30 87 H 7.434867 8.037678 -14.960320 0
M  V30 88 H 14.630635 6.070156 -17.871382 0
M  V30 89 H 4.277804 7.471996 -19.471840 0
M  V30 90 H 3.834819 5.769406 -19.548257 0
M  V30 91 H 15.125857 6.770395 -19.259536 0
M  V30 END ATOM
M  V30 BEGIN BOND
M  V30 1 2 2 1
M  V30 2 1 12 11
M  V30 3 1 13 1
M  V30 4 2 13 8
M  V30 5 1 16 11
M  V30 6 1 17 3
M  V30 7 2 17 5
M  V30 8 1 18 16
M  V30 9 1 19 2
M  V30 10 1 21 11
M  V30 11 1 22 13
M  V30 12 1 24 12
M  V30 13 1 24 18
M  V30 14 1 27 15
M  V30 15 1 28 4
M  V30 16 1 28 10
M  V30 17 1 28 25
M  V30 18 1 29 15
M  V30 19 1 32 23
M  V30 20 1 33 19
M  V30 21 1 34 7
M  V30 22 1 34 20
M  V30 23 1 34 27
M  V30 24 1 34 30
M  V30 25 1 35 4
M  V30 26 1 35 6
M  V30 27 1 36 4
M  V30 28 1 36 16
M  V30 29 1 37 9
M  V30 30 1 38 7
M  V30 31 1 38 20
M  V30 32 1 39 8
M  V30 33 2 39 19
M  V30 34 2 40 14
M  V30 35 1 40 18
M  V30 36 1 41 17
M  V30 37 1 41 22 CFG=3
M  V30 38 1 41 32
M  V30 39 1 42 9
M  V30 40 1 43 40
M  V30 41 1 43 42
M  V30 42 1 44 28
M  V30 43 1 44 31
M  V30 44 1 45 9
M  V30 45 1 45 41
M  V30 46 1 46 21
M  V30 47 1 46 35
M  V30 48 1 4 47 CFG=1
M  V30 49 2 48 26
M  V30 50 1 48 29
M  V30 51 1 48 31
M  V30 52 1 49 1
M  V30 53 1 50 2
M  V30 54 1 51 7
M  V30 55 1 52 7
M  V30 56 1 53 8
M  V30 57 1 9 54 CFG=3
M  V30 58 1 11 55 CFG=1
M  V30 59 1 56 12
M  V30 60 1 57 12
M  V30 61 1 58 15
M  V30 62 1 59 15
M  V30 63 1 16 60 CFG=1
M  V30 64 1 18 61 CFG=3
M  V30 65 1 62 20
M  V30 66 1 63 20
M  V30 67 1 64 21
M  V30 68 1 65 21
M  V30 69 1 66 22
M  V30 70 1 67 22
M  V30 71 1 68 23
M  V30 72 1 69 24
M  V30 73 1 70 24
M  V30 74 1 71 27
M  V30 75 1 72 27
M  V30 76 1 73 29
M  V30 77 1 74 31
M  V30 78 1 75 32
M  V30 79 1 76 32
M  V30 80 1 35 77 CFG=3
M  V30 81 1 78 37
M  V30 82 1 79 37
M  V30 83 1 80 37
M  V30 84 1 81 38
M  V30 85 1 82 38
M  V30 86 1 83 39
M  V30 87 1 84 42
M  V30 88 1 85 42
M  V30 89 1 86 44
M  V30 90 1 87 44
M  V30 91 1 88 45
M  V30 92 1 89 46
M  V30 93 1 90 46
M  V30 94 1 91 45
M  V30 END BOND
M  V30 END CTAB
M  END
>  <i_epik_Tot_Q>  (1) 
0

>  <i_epik_Tot_abs_Q>  (1) 
2

>  <i_i_glide_confnum>  (1) 
535

>  <i_i_glide_lignum>  (1) 
185

>  <i_i_glide_posenum>  (1) 
380

>  <i_i_glide_rotatable_bonds>  (1) 
19

>  <i_lp_mmshare_version>  (1) 
72125

>  <i_m_source_file_index>  (1) 
92

>  <i_f3d_flags>  (1) 
0

>  <num_sample>  (1) 
100

>  <b_lp_Chiralities_Consistent>  (1) 
1

>  <r_epik_Charging_Adjusted_Penalty>  (1) 
0.009474757763754324

>  <r_epik_Ionization_Penalty>  (1) 
0.0047391049881846635

>  <r_epik_Ionization_Penalty_Charging>  (1) 
0.0047383734809194307

>  <r_epik_Ionization_Penalty_Neutral>  (1) 
7.3150726523264564e-07

>  <r_epik_State_Penalty>  (1) 
0.0047363842828348933

>  <r_glide_ring_energy>  (1) 
0.6799158544913404

>  <r_i_docking_score>  (1) 
-5.558039177451942

>  <r_i_glide_ecoul>  (1) 
-6.5391373045975856

>  <r_i_glide_eff_state_penalty>  (1) 
0.0047363842828348933

>  <r_i_glide_einternal>  (1) 
16.906285385496947

>  <r_i_glide_emodel>  (1) 
-40.277334483791677

>  <r_i_glide_emodel_strain>  (1) 
2.6687304069499618

>  <r_i_glide_energy>  (1) 
-33.601956024904922

>  <r_i_glide_erotb>  (1) 
0.42390194326956793

>  <r_i_glide_esite>  (1) 
-0.13691533614711129

>  <r_i_glide_evdw>  (1) 
-27.062818720307334

>  <r_i_glide_gscore>  (1) 
-5.5627755617347772

>  <r_i_glide_gscore_strain>  (1) 
0

>  <r_i_glide_hbond>  (1) 
-0.30771436574097322

>  <r_i_glide_ligand_efficiency>  (1) 
-0.11579248286358212

>  <r_i_glide_ligand_efficiency_ln>  (1) 
-1.1409997585823375

>  <r_i_glide_ligand_efficiency_sa>  (1) 
-0.42081781021315551

>  <r_i_glide_lipo>  (1) 
-1.6072056940183856

>  <r_i_glide_metal>  (1) 
-0

>  <r_i_glide_rewards>  (1) 
-1.6008305773928699

>  <r_lp_Energy>  (1) 
54.172243999999999

>  <s_epik_Chemistry_Notes>  (1) 
This compound has an ester and may undergo hydrolysis at high or low pH.

>  <s_epik_cmdline>  (1) 
J2VwaWtfcHl0aG9uJywgJy1waHQnLCAnMS4wJywgJy1waCcsICc3LjQnLCAnLXRuJywgJzgnLCAnLW1hJywgJzUwMCcsICctaW1hZScsICc8aW5maWxlLm1hZT4nLCAnLW9tYWUnLCAnPG91dGZpbGUubWFlPic=

>  <s_epik_input>  (1) 
W2NIXTFbY0hdYyhDbClbY0hdW2NIXWMxW0NIMl1bQ0BdKEMoPU8pW09IXSkoW0NIMl1bT0hdKVtOSF1bQ0BIXShbQ0gzXSlbQ0gyXU9DKD1PKVtDQEhdKFtDSDJdW0NIMl0yKVtDQEBIXShbQ0BASF0yMylPW0NAQF0oRikoW0NAQEhdKEYpW0NIMl1bQ0gyXTMpQyhGKShGKVtDSDJdW05IXUMoPVMpW05IXVtDSDJdW0NIMl1DNChGKVtDSDJdW0NIMl1bQ0gyXTQ=

>  <s_glide_docking_method>  (1) 
confgen

>  <s_i_glide_gridfile>  (1) 
gpcr_drd2_6luq_protein_autoprepared_prepared

>  <s_lp_Force_Field>  (1) 
S-OPLS

>  <s_lp_Variant>  (1) 
DiffSBDD_91_num_sample_100-1

>  <s_m_source_file>  (1) 
generated__ligand_DiffSBDD_2026-05-06_prepared.sdf

>  <GenAI_Model>  (1) 
DiffSBDD

>  <Protein>  (1) 
generic_title2

$$$$
DiffSBDD_0_num_sample_100
     RDKit          3D

  0  0  0  0  0  0  0  0  0  0999 V3000
M  V30 BEGIN CTAB
M  V30 COUNTS 105 110 0 0 1
M  V30 BEGIN ATOM
M  V30 1 C 5.399183 4.704680 -11.681831 0
M  V30 2 C 10.610582 0.451726 -19.425272 0
M  V30 3 O 11.564048 3.757172 -18.880305 0
M  V30 4 C 10.954686 4.613776 -19.813121 0 CFG=1
M  V30 5 S 7.717209 -2.720426 -18.341776 0
M  V30 6 C 6.788939 5.190630 -13.832671 0 CFG=1
M  V30 7 C 5.844582 6.933000 -16.579179 0
M  V30 8 C 8.369250 5.404051 -18.400821 0 CFG=2
M  V30 9 C 15.007088 1.718854 -19.018881 0
M  V30 10 C 6.262831 5.500587 -16.897418 0
M  V30 11 C 8.234225 5.054448 -14.428821 0 CFG=1
M  V30 12 C 6.372578 7.447046 -15.224731 0
M  V30 13 C 8.047669 -0.163648 -17.615172 0 CFG=1
M  V30 14 O 8.229588 -2.835622 -19.778452 0
M  V30 15 C 8.002755 1.923463 -17.978242 0 CFG=2
M  V30 16 N 14.877372 3.415787 -17.164204 0 CHG=1
M  V30 17 C 9.127772 5.272307 -12.020657 0
M  V30 18 O 8.193069 -4.117203 -17.491679 0
M  V30 19 O 5.822575 2.433246 -18.691691 0
M  V30 20 C 8.067333 0.680580 -18.906929 0 CFG=1
M  V30 21 C 8.600595 5.187545 -15.958420 0
M  V30 22 C 14.128327 5.825565 -17.249292 0
M  V30 23 O 6.699196 2.286362 -17.535994 0
M  V30 24 O 8.898634 3.008606 -18.217704 0
M  V30 25 S 10.282429 5.189230 -16.386833 0
M  V30 26 C 9.194582 5.795058 -13.462040 0
M  V30 27 C 11.710823 0.028535 -20.426111 0
M  V30 28 C 8.930395 1.568555 -21.121067 0
M  V30 29 C 13.525410 1.486852 -19.340804 0
M  V30 30 C 13.138510 0.079645 -19.828068 0
M  V30 31 C 9.778562 5.927384 -18.027996 0 CFG=1
M  V30 32 O 16.901593 6.060015 -17.483609 0
M  V30 33 C 15.075402 4.784917 -16.619073 0 CFG=2
M  V30 34 C 9.164580 0.536725 -19.979573 0 CFG=1
M  V30 35 C 15.281833 3.173305 -18.574947 0
M  V30 36 C 9.580572 4.074767 -20.283861 0 CFG=1
M  V30 37 C 16.563592 5.178026 -16.666024 0
M  V30 38 C 10.819839 5.961821 -19.143550 0
M  V30 39 N 7.754556 5.412502 -11.503421 0 CHG=1
M  V30 40 O 17.330654 4.569694 -15.891593 0 CHG=-1
M  V30 41 N 8.633005 -1.494790 -17.529571 0
M  V30 42 C 6.778186 4.690699 -12.348378 0 CFG=1
M  V30 43 C 9.808195 2.838013 -21.198690 0
M  V30 44 C 7.761577 5.338438 -16.998062 0
M  V30 45 C 6.106312 6.591699 -13.965673 0
M  V30 46 C 8.510246 4.018827 -19.146981 0 CFG=2
M  V30 47 C 8.620902 1.047346 -16.879124 0
M  V30 48 H 4.668030 4.169499 -12.287917 0
M  V30 49 H 5.034837 5.720735 -11.527630 0
M  V30 50 H 5.432479 4.220766 -10.704220 0
M  V30 51 H 10.846557 1.405255 -18.973742 0
M  V30 52 H 10.655073 -0.265257 -18.608929 0
M  V30 53 H 10.896772 3.522020 -18.246764 0
M  V30 54 H 11.629977 4.717891 -20.663461 0
M  V30 55 H 6.163746 4.425864 -14.281616 0
M  V30 56 H 4.755487 6.991894 -16.579645 0
M  V30 57 H 6.178633 7.598018 -17.375710 0
M  V30 58 H 7.852339 6.133231 -19.025500 0
M  V30 59 H 15.585501 1.513812 -19.919920 0
M  V30 60 H 15.355393 1.010958 -18.265570 0
M  V30 61 H 5.834906 4.969182 -16.100875 0
M  V30 62 H 5.793088 5.152142 -17.817721 0
M  V30 63 H 8.474923 3.998759 -14.291058 0
M  V30 64 H 7.434827 7.638923 -15.258228 0
M  V30 65 H 5.923868 8.428979 -15.091684 0
M  V30 66 H 7.011576 -0.283707 -17.289533 0
M  V30 67 H 15.418286 2.801070 -16.572921 0
M  V30 68 H 9.805823 5.836287 -11.380291 0
M  V30 69 H 9.443546 4.228380 -11.972676 0
M  V30 70 H 8.091480 -3.930015 -16.563822 0
M  V30 71 H 5.911865 3.356296 -18.871258 0
M  V30 72 H 7.110365 0.498654 -19.395019 0
M  V30 73 H 14.259772 6.805384 -16.788073 0
M  V30 74 H 13.092945 5.532287 -17.090692 0
M  V30 75 H 14.286577 5.943175 -18.321175 0
M  V30 76 H 10.234096 5.756955 -13.780756 0
M  V30 77 H 8.898795 6.840227 -13.419491 0
M  V30 78 H 11.497190 -0.979222 -20.782045 0
M  V30 79 H 11.689230 0.639535 -21.324790 0
M  V30 80 H 7.877362 1.845038 -21.183398 0
M  V30 81 H 9.117981 1.028858 -22.050796 0
M  V30 82 H 12.954752 1.707417 -18.440981 0
M  V30 83 H 13.226471 2.205229 -20.104435 0
M  V30 84 H 13.846403 -0.246757 -20.590654 0
M  V30 85 H 13.230690 -0.628415 -19.003692 0
M  V30 86 H 9.559451 6.969300 -17.891754 0
M  V30 87 H 14.808809 4.725791 -15.561419 0
M  V30 88 H 8.987933 -0.436292 -20.438879 0
M  V30 89 H 16.346687 3.371205 -18.691525 0
M  V30 90 H 14.770127 3.869495 -19.239865 0
M  V30 91 H 9.193744 4.838264 -20.960502 0
M  V30 92 H 11.777089 6.327003 -18.775725 0
M  V30 93 H 10.502290 6.686554 -19.894459 0
M  V30 94 H 7.714963 5.049735 -10.560473 0
M  V30 95 H 9.598874 -1.494105 -17.821105 0
M  V30 96 H 7.096773 3.646643 -12.356538 0
M  V30 97 H 10.853283 2.552276 -21.143496 0
M  V30 98 H 9.717400 3.201222 -22.223606 0
M  V30 99 H 5.034768 6.465561 -13.853162 0
M  V30 100 H 6.407039 7.206084 -13.115773 0
M  V30 101 H 7.565231 3.786445 -19.626389 0
M  V30 102 H 8.213394 1.208375 -15.880042 0
M  V30 103 H 9.709825 1.074837 -16.868092 0
M  V30 104 H 13.899885 3.183331 -17.067685 0
M  V30 105 H 7.505889 6.392991 -11.455077 0
M  V30 END ATOM
M  V30 BEGIN BOND
M  V30 1 1 4 3
M  V30 2 1 10 7
M  V30 3 1 11 6
M  V30 4 1 12 7
M  V30 5 2 14 5
M  V30 6 1 5 18 CFG=1
M  V30 7 1 20 13
M  V30 8 1 20 15
M  V30 9 1 21 11
M  V30 10 1 15 23 CFG=1
M  V30 11 1 23 19
M  V30 12 1 24 15
M  V30 13 1 25 21
M  V30 14 1 26 11
M  V30 15 1 26 17
M  V30 16 1 27 2
M  V30 17 1 29 9
M  V30 18 1 30 27
M  V30 19 1 30 29
M  V30 20 1 31 8
M  V30 21 1 31 25
M  V30 22 1 33 16
M  V30 23 1 33 22
M  V30 24 1 34 2
M  V30 25 1 34 20
M  V30 26 1 34 28
M  V30 27 1 35 9
M  V30 28 1 35 16
M  V30 29 1 36 4
M  V30 30 2 37 32
M  V30 31 1 37 33
M  V30 32 1 38 4
M  V30 33 1 38 31
M  V30 34 1 39 17
M  V30 35 1 40 37
M  V30 36 1 41 5
M  V30 37 1 41 13
M  V30 38 1 42 1
M  V30 39 1 42 6
M  V30 40 1 42 39
M  V30 41 1 43 28
M  V30 42 1 43 36
M  V30 43 1 44 8
M  V30 44 1 44 10
M  V30 45 2 44 21
M  V30 46 1 45 6
M  V30 47 1 45 12
M  V30 48 1 46 8
M  V30 49 1 46 24
M  V30 50 1 46 36
M  V30 51 1 47 13
M  V30 52 1 47 15
M  V30 53 1 48 1
M  V30 54 1 49 1
M  V30 55 1 50 1
M  V30 56 1 51 2
M  V30 57 1 52 2
M  V30 58 1 53 3
M  V30 59 1 4 54 CFG=3
M  V30 60 1 6 55 CFG=3
M  V30 61 1 56 7
M  V30 62 1 57 7
M  V30 63 1 8 58 CFG=3
M  V30 64 1 59 9
M  V30 65 1 60 9
M  V30 66 1 61 10
M  V30 67 1 62 10
M  V30 68 1 11 63 CFG=1
M  V30 69 1 64 12
M  V30 70 1 65 12
M  V30 71 1 13 66 CFG=1
M  V30 72 1 67 16
M  V30 73 1 68 17
M  V30 74 1 69 17
M  V30 75 1 70 18
M  V30 76 1 71 19
M  V30 77 1 20 72 CFG=3
M  V30 78 1 73 22
M  V30 79 1 74 22
M  V30 80 1 75 22
M  V30 81 1 76 26
M  V30 82 1 77 26
M  V30 83 1 78 27
M  V30 84 1 79 27
M  V30 85 1 80 28
M  V30 86 1 81 28
M  V30 87 1 82 29
M  V30 88 1 83 29
M  V30 89 1 84 30
M  V30 90 1 85 30
M  V30 91 1 31 86 CFG=1
M  V30 92 1 33 87 CFG=1
M  V30 93 1 34 88 CFG=3
M  V30 94 1 89 35
M  V30 95 1 90 35
M  V30 96 1 36 91 CFG=3
M  V30 97 1 92 38
M  V30 98 1 93 38
M  V30 99 1 94 39
M  V30 100 1 95 41
M  V30 101 1 42 96 CFG=3
M  V30 102 1 97 43
M  V30 103 1 98 43
M  V30 104 1 99 45
M  V30 105 1 100 45
M  V30 106 1 46 101 CFG=3
M  V30 107 1 102 47
M  V30 108 1 103 47
M  V30 109 1 104 16
M  V30 110 1 105 39
M  V30 END BOND
M  V30 END CTAB
M  END
>  <i_epik_Tot_Q>  (1) 
1

>  <i_epik_Tot_abs_Q>  (1) 
3

>  <i_i_glide_confnum>  (1) 
837

>  <i_i_glide_lignum>  (1) 
1

>  <i_i_glide_posenum>  (1) 
381

>  <i_i_glide_rotatable_bonds>  (1) 
15

>  <i_lp_mmshare_version>  (1) 
72125

>  <i_m_source_file_index>  (1) 
1

>  <i_f3d_flags>  (1) 
0

>  <num_sample>  (1) 
100

>  <b_lp_Chiralities_Consistent>  (1) 
1

>  <r_epik_Charging_Adjusted_Penalty>  (1) 
0.0032360822409407838

>  <r_epik_Ionization_Penalty>  (1) 
0.0033274947784888795

>  <r_epik_Ionization_Penalty_Charging>  (1) 
0.0032360822409407838

>  <r_epik_Ionization_Penalty_Neutral>  (1) 
9.1412537548095675e-05

>  <r_epik_State_Penalty>  (1) 
-0

>  <r_glide_ring_energy>  (1) 
0

>  <r_i_docking_score>  (1) 
-5.5570019132703639

>  <r_i_glide_ecoul>  (1) 
-8.9978480677376815

>  <r_i_glide_eff_state_penalty>  (1) 
-0

>  <r_i_glide_einternal>  (1) 
8.5408759560545544

>  <r_i_glide_emodel>  (1) 
-33.002374433522888

>  <r_i_glide_emodel_strain>  (1) 
1.9693420008683944

>  <r_i_glide_energy>  (1) 
-34.152674958499581

>  <r_i_glide_erotb>  (1) 
0.30458455882301022

>  <r_i_glide_esite>  (1) 
-0.092811886319836112

>  <r_i_glide_evdw>  (1) 
-25.1548268907619

>  <r_i_glide_gscore>  (1) 
-5.5570019132703639

>  <r_i_glide_gscore_strain>  (1) 
0

>  <r_i_glide_hbond>  (1) 
-0.46070407398845326

>  <r_i_glide_ligand_efficiency>  (1) 
-0.11823408326107157

>  <r_i_glide_ligand_efficiency_ln>  (1) 
-1.1457387217063422

>  <r_i_glide_ligand_efficiency_sa>  (1) 
-0.42668624323384508

>  <r_i_glide_lipo>  (1) 
-2.2254262436346548

>  <r_i_glide_metal>  (1) 
-0

>  <r_i_glide_rewards>  (1) 
-0.47522571345168274

>  <r_lp_Energy>  (1) 
58.103532999999999

>  <r_lp_tautomer_probability>  (1) 
1

>  <s_epik_cmdline>  (1) 
J2VwaWtfcHl0aG9uJywgJy1waHQnLCAnMS4wJywgJy1waCcsICc3LjQnLCAnLXRuJywgJzgnLCAnLW1hJywgJzUwMCcsICctaW1hZScsICc8aW5maWxlLm1hZT4nLCAnLW9tYWUnLCAnPG91dGZpbGUubWFlPic=

>  <s_epik_input>  (1) 
W0NIM11bQ0BASF0xW05IXVtDSDJdW0NIMl1bQ0BIXTJbQ0BASF0xW0NIMl1bQ0gyXVtDSDJdW0NIMl1DMz1DMlNbQ0BASF0oW0NIMl1bQ0BIXTRbT0hdKVtDQEhdM1tDQEhdKE81KVtDQEBIXTRbQ0gyXVtDSDJdW0NASF0oW0NASF0oW0NAXTU2T1tPSF0pW0NASF0oW0NIMl02KVtOSF1bU0BAXSg9TylbT0hdKVtDSDJdW0NIMl1bQ0gyXVtDSDJdW0NIMl1bQ0gyXVtOSF1bQ0BIXShbQ0gzXSlDKD1PKVtPSF0=

>  <s_glide_docking_method>  (1) 
confgen

>  <s_i_glide_gridfile>  (1) 
gpcr_drd2_6luq_protein_autoprepared_prepared

>  <s_lp_Force_Field>  (1) 
S-OPLS

>  <s_lp_Variant>  (1) 
DiffSBDD_0_num_sample_100-1

>  <s_m_source_file>  (1) 
generated__ligand_DiffSBDD_2026-05-06_prepared.sdf

>  <GenAI_Model>  (1) 
DiffSBDD

>  <Protein>  (1) 
generic_title2

$$$$
DiffSBDD_72_num_sample_100
     RDKit          3D

  0  0  0  0  0  0  0  0  0  0999 V3000
M  V30 BEGIN CTAB
M  V30 COUNTS 32 34 0 0 1
M  V30 BEGIN ATOM
M  V30 1 C 11.607814 8.252548 -8.960706 0
M  V30 2 C 7.029641 5.359831 -11.918714 0
M  V30 3 C 9.439792 6.466341 -8.733543 0
M  V30 4 C 10.971433 7.769301 -10.119686 0
M  V30 5 C 9.184462 6.381952 -11.269588 0 CFG=1
M  V30 6 C 9.834839 5.120079 -11.891671 0
M  V30 7 N 7.763379 6.169301 -11.092083 0
M  V30 8 C 11.158850 7.847699 -7.689148 0
M  V30 9 C 5.564260 5.393068 -11.802506 0
M  V30 10 C 9.882771 6.881710 -10.011210 0
M  V30 11 F 11.765174 8.322203 -6.576331 0
M  V30 12 C 10.077962 6.951557 -7.575100 0
M  V30 13 C 9.034849 4.456476 -13.045309 0
M  V30 14 C 5.289237 4.487842 -13.091665 0
M  V30 15 C 6.618049 3.801583 -13.648618 0
M  V30 16 C 7.548687 4.584730 -12.814008 0
M  V30 17 H 12.438240 8.938377 -9.047196 0
M  V30 18 H 8.605797 5.785209 -8.642945 0
M  V30 19 H 11.313495 8.085106 -11.091662 0
M  V30 20 H 9.259190 7.183667 -12.005759 0
M  V30 21 H 10.833442 5.364482 -12.253190 0
M  V30 22 H 9.935607 4.374177 -11.102748 0
M  V30 23 H 5.238783 4.915861 -10.877140 0
M  V30 24 H 9.734192 6.640373 -6.599358 0
M  V30 25 H 9.284787 4.911344 -14.003811 0
M  V30 26 H 9.300598 3.400598 -13.091683 0
M  V30 27 H 4.908431 5.141745 -13.877614 0
M  V30 28 H 4.494942 3.769302 -12.908666 0
M  V30 29 H 6.683587 2.739117 -13.411944 0
M  V30 30 H 6.770081 3.969455 -14.715255 0
M  V30 31 H 5.156575 6.401827 -11.879333 0
M  V30 32 H 7.278907 6.795064 -10.425750 0
M  V30 END ATOM
M  V30 BEGIN BOND
M  V30 1 2 4 1
M  V30 2 1 6 5
M  V30 3 1 7 2
M  V30 4 1 7 5
M  V30 5 1 8 1
M  V30 6 1 9 2
M  V30 7 2 10 3
M  V30 8 1 10 4
M  V30 9 1 10 5
M  V30 10 1 11 8
M  V30 11 1 12 3
M  V30 12 2 12 8
M  V30 13 1 13 6
M  V30 14 1 14 9
M  V30 15 1 15 14
M  V30 16 2 16 2
M  V30 17 1 16 13
M  V30 18 1 16 15
M  V30 19 1 17 1
M  V30 20 1 18 3
M  V30 21 1 19 4
M  V30 22 1 5 20 CFG=3
M  V30 23 1 21 6
M  V30 24 1 22 6
M  V30 25 1 23 9
M  V30 26 1 24 12
M  V30 27 1 25 13
M  V30 28 1 26 13
M  V30 29 1 27 14
M  V30 30 1 28 14
M  V30 31 1 29 15
M  V30 32 1 30 15
M  V30 33 1 31 9
M  V30 34 1 32 7
M  V30 END BOND
M  V30 END CTAB
M  END
>  <i_epik_Tot_Q>  (1) 
0

>  <i_epik_Tot_abs_Q>  (1) 
0

>  <i_i_glide_confnum>  (1) 
2

>  <i_i_glide_lignum>  (1) 
144

>  <i_i_glide_posenum>  (1) 
319

>  <i_i_glide_rotatable_bonds>  (1) 
1

>  <i_lp_mmshare_version>  (1) 
72125

>  <i_m_source_file_index>  (1) 
73

>  <i_f3d_flags>  (1) 
0

>  <num_sample>  (1) 
100

>  <b_lp_Chiralities_Consistent>  (1) 
1

>  <r_epik_Charging_Adjusted_Penalty>  (1) 
0.00012261153731157732

>  <r_epik_Ionization_Penalty>  (1) 
0.00096767274994002245

>  <r_epik_Ionization_Penalty_Charging>  (1) 
0.00012261153731157732

>  <r_epik_Ionization_Penalty_Neutral>  (1) 
0.00084506121262844516

>  <r_epik_State_Penalty>  (1) 
-0

>  <r_glide_ring_energy>  (1) 
0

>  <r_i_docking_score>  (1) 
-5.5547312064423497

>  <r_i_glide_ecoul>  (1) 
-5.592429579120755

>  <r_i_glide_eff_state_penalty>  (1) 
-0

>  <r_i_glide_einternal>  (1) 
0.25174393934618633

>  <r_i_glide_emodel>  (1) 
-35.84571092582857

>  <r_i_glide_emodel_strain>  (1) 
0.021938141246714338

>  <r_i_glide_energy>  (1) 
-25.069984011466275

>  <r_i_glide_erotb>  (1) 
0.35536468767402363

>  <r_i_glide_esite>  (1) 
-0.10000000000000001

>  <r_i_glide_evdw>  (1) 
-19.477554432345521

>  <r_i_glide_gscore>  (1) 
-5.5547312064423497

>  <r_i_glide_gscore_strain>  (1) 
0

>  <r_i_glide_hbond>  (1) 
-0.14493638664317701

>  <r_i_glide_ligand_efficiency>  (1) 
-0.34717070040264686

>  <r_i_glide_ligand_efficiency_ln>  (1) 
-1.4723924645420965

>  <r_i_glide_ligand_efficiency_sa>  (1) 
-0.8748153466880827

>  <r_i_glide_lipo>  (1) 
-1.1239044530777729

>  <r_i_glide_metal>  (1) 
-0

>  <r_i_glide_rewards>  (1) 
-2.728512895910034

>  <r_lp_Energy>  (1) 
12.197267

>  <r_lp_tautomer_probability>  (1) 
1

>  <s_epik_Chemistry_Notes>  (1) 
This compound has an imine and may undergo hydrolysis.

>  <s_epik_cmdline>  (1) 
J2VwaWtfcHl0aG9uJywgJy1waHQnLCAnMS4wJywgJy1waCcsICc3LjQnLCAnLXRuJywgJzgnLCAnLW1hJywgJzUwMCcsICctaW1hZScsICc8aW5maWxlLm1hZT4nLCAnLW9tYWUnLCAnPG91dGZpbGUubWFlPic=

>  <s_epik_input>  (1) 
RmMxW2NIXVtjSF1jKFtjSF1bY0hdMSlbQ0BIXShOMilbQ0gyXVtDSDJdW0NASF0oQz0yMylbQ0gyXVtDSDJdW0NIMl0z

>  <s_glide_docking_method>  (1) 
confgen

>  <s_i_glide_gridfile>  (1) 
gpcr_drd2_6luq_protein_autoprepared_prepared

>  <s_lp_Force_Field>  (1) 
S-OPLS

>  <s_lp_Variant>  (1) 
DiffSBDD_72_num_sample_100-1

>  <s_m_source_file>  (1) 
generated__ligand_DiffSBDD_2026-05-06_prepared.sdf

>  <GenAI_Model>  (1) 
DiffSBDD

>  <Protein>  (1) 
generic_title2

$$$$
DiffSBDD_49_num_sample_100
     RDKit          3D

  0  0  0  0  0  0  0  0  0  0999 V3000
M  V30 BEGIN CTAB
M  V30 COUNTS 52 55 0 0 1
M  V30 BEGIN ATOM
M  V30 1 N 8.242673 5.769297 -14.314104 0
M  V30 2 C 5.252740 6.687577 -17.194058 0
M  V30 3 C 6.665302 5.615925 -18.869872 0
M  V30 4 C 6.570050 4.363119 -10.844417 0
M  V30 5 C 11.157931 8.423452 -8.687482 0
M  V30 6 S 7.434827 3.244878 -14.746835 0
M  V30 7 C 6.070588 6.169312 -16.171383 0
M  V30 8 C 9.590726 6.877475 -9.955009 0 CFG=1
M  V30 9 C 8.092394 4.817338 -15.395134 0 CFG=1
M  V30 10 C 6.429279 3.624936 -12.189100 0
M  V30 11 C 9.392443 5.862921 -11.110754 0
M  V30 12 C 8.023703 5.247790 -13.187948 0
M  V30 13 C 10.687150 7.845326 -7.337288 0 CFG=2
M  V30 14 O 11.434840 6.569438 -5.424529 0
M  V30 15 C 8.060192 6.041020 -11.888896 0 CFG=1
M  V30 16 C 11.608527 6.729040 -6.819095 0
M  V30 17 C 7.193900 5.372119 -16.497535 0
M  V30 18 C 9.070562 6.327521 -8.606571 0
M  V30 19 C 5.550127 6.411505 -18.542481 0
M  V30 20 C 7.686360 3.794742 -13.054646 0 CFG=2
M  V30 21 C 11.043960 7.372997 -9.795077 0
M  V30 22 N 6.861404 5.769301 -11.091668 0
M  V30 23 C 9.240399 7.355994 -7.468991 0
M  V30 24 C 7.486771 5.096540 -17.849256 0
M  V30 25 H 7.989709 7.094896 -12.161726 0
M  V30 26 H 4.398200 7.298641 -16.943635 0
M  V30 27 H 6.892021 5.405091 -19.904575 0
M  V30 28 H 5.634832 4.286097 -10.291573 0
M  V30 29 H 7.354434 3.938819 -10.220865 0
M  V30 30 H 10.556283 9.290729 -8.959693 0
M  V30 31 H 12.185975 8.779247 -8.610938 0
M  V30 32 H 5.839885 6.384272 -15.138006 0
M  V30 33 H 9.034794 7.777107 -10.209187 0
M  V30 34 H 9.077674 4.614264 -15.817001 0
M  V30 35 H 5.558525 4.016346 -12.719087 0
M  V30 36 H 6.234771 2.565825 -12.021029 0
M  V30 37 H 10.204311 6.003534 -11.825986 0
M  V30 38 H 9.505004 4.839178 -10.750653 0
M  V30 39 H 10.712711 8.665028 -6.616689 0
M  V30 40 H 10.575055 6.204531 -5.271741 0
M  V30 41 H 12.634827 6.969172 -7.091667 0
M  V30 42 H 11.417491 5.768864 -7.291808 0
M  V30 43 H 8.022945 6.048064 -8.680517 0
M  V30 44 H 9.582688 5.397585 -8.365478 0
M  V30 45 H 4.923435 6.810650 -19.326268 0
M  V30 46 H 11.418519 7.775848 -10.736243 0
M  V30 47 H 11.703471 6.569310 -9.500753 0
M  V30 48 H 8.872485 6.946677 -6.528046 0
M  V30 49 H 8.634797 8.233698 -7.677517 0
M  V30 50 H 8.343069 4.488897 -18.103298 0
M  V30 51 H 6.863126 6.368599 -10.256817 0
M  V30 52 H 8.537643 3.269397 -12.619965 0
M  V30 END ATOM
M  V30 BEGIN BOND
M  V30 1 1 7 2
M  V30 2 1 9 1
M  V30 3 1 9 6
M  V30 4 1 10 4
M  V30 5 1 11 8
M  V30 6 2 12 1
M  V30 7 1 13 5
M  V30 8 1 15 11
M  V30 9 1 15 12
M  V30 10 1 16 13
M  V30 11 1 16 14
M  V30 12 2 17 7
M  V30 13 1 17 9
M  V30 14 1 18 8
M  V30 15 2 19 2
M  V30 16 1 19 3
M  V30 17 1 20 6
M  V30 18 1 20 10
M  V30 19 1 20 12
M  V30 20 1 21 5
M  V30 21 1 21 8
M  V30 22 1 22 4
M  V30 23 1 22 15
M  V30 24 1 23 13
M  V30 25 1 23 18
M  V30 26 2 24 3
M  V30 27 1 24 17
M  V30 28 1 15 25 CFG=3
M  V30 29 1 26 2
M  V30 30 1 27 3
M  V30 31 1 28 4
M  V30 32 1 29 4
M  V30 33 1 30 5
M  V30 34 1 31 5
M  V30 35 1 32 7
M  V30 36 1 8 33 CFG=3
M  V30 37 1 9 34 CFG=3
M  V30 38 1 35 10
M  V30 39 1 36 10
M  V30 40 1 37 11
M  V30 41 1 38 11
M  V30 42 1 13 39 CFG=1
M  V30 43 1 40 14
M  V30 44 1 41 16
M  V30 45 1 42 16
M  V30 46 1 43 18
M  V30 47 1 44 18
M  V30 48 1 45 19
M  V30 49 1 46 21
M  V30 50 1 47 21
M  V30 51 1 48 23
M  V30 52 1 49 23
M  V30 53 1 50 24
M  V30 54 1 51 22
M  V30 55 1 20 52 CFG=1
M  V30 END BOND
M  V30 END CTAB
M  END
>  <i_epik_Tot_Q>  (1) 
0

>  <i_epik_Tot_abs_Q>  (1) 
0

>  <i_i_glide_confnum>  (1) 
25

>  <i_i_glide_lignum>  (1) 
92

>  <i_i_glide_posenum>  (1) 
186

>  <i_i_glide_rotatable_bonds>  (1) 
5

>  <i_lp_mmshare_version>  (1) 
72125

>  <i_m_source_file_index>  (1) 
50

>  <i_f3d_flags>  (1) 
0

>  <num_sample>  (1) 
100

>  <b_lp_Chiralities_Consistent>  (1) 
1

>  <r_epik_Charging_Adjusted_Penalty>  (1) 
0.1447540794995397

>  <r_epik_Ionization_Penalty>  (1) 
0.14481163516182699

>  <r_epik_Ionization_Penalty_Charging>  (1) 
0

>  <r_epik_Ionization_Penalty_Neutral>  (1) 
0.14481163516182699

>  <r_epik_State_Penalty>  (1) 
0.1447540794995397

>  <r_glide_ring_energy>  (1) 
0.012110018449817897

>  <r_i_docking_score>  (1) 
-5.5545487155494104

>  <r_i_glide_ecoul>  (1) 
-4.9516104311300104

>  <r_i_glide_eff_state_penalty>  (1) 
0.1447540794995397

>  <r_i_glide_einternal>  (1) 
3.7217001475310809

>  <r_i_glide_emodel>  (1) 
-36.82146603926369

>  <r_i_glide_emodel_strain>  (1) 
0.19962994681921487

>  <r_i_glide_energy>  (1) 
-33.054051814316921

>  <r_i_glide_erotb>  (1) 
0.63990235469448886

>  <r_i_glide_esite>  (1) 
0

>  <r_i_glide_evdw>  (1) 
-28.10244138318691

>  <r_i_glide_gscore>  (1) 
-5.6993027950489505

>  <r_i_glide_gscore_strain>  (1) 
0

>  <r_i_glide_hbond>  (1) 
-0.16

>  <r_i_glide_ligand_efficiency>  (1) 
-0.23143952981455876

>  <r_i_glide_ligand_efficiency_ln>  (1) 
-1.329458389263221

>  <r_i_glide_ligand_efficiency_sa>  (1) 
-0.66758712485439209

>  <r_i_glide_lipo>  (1) 
-1.9830654265061383

>  <r_i_glide_metal>  (1) 
-0

>  <r_i_glide_rewards>  (1) 
-2.0482760894084548

>  <r_lp_Energy>  (1) 
25.428964000000001

>  <r_lp_tautomer_probability>  (1) 
0.99998399999999998

>  <s_epik_Chemistry_Notes>  (1) 
This compound has an imine and may undergo hydrolysis. This compound contains an acetal/aminal-like group ( X-CH(R)-Y where X, Y are N, S, or O) that may be acid/base labile, releasing an aldehyde.

>  <s_epik_cmdline>  (1) 
J2VwaWtfcHl0aG9uJywgJy1waHQnLCAnMS4wJywgJy1waCcsICc3LjQnLCAnLXRuJywgJzgnLCAnLW1hJywgJzUwMCcsICctaW1hZScsICc8aW5maWxlLm1hZT4nLCAnLW9tYWUnLCAnPG91dGZpbGUubWFlPic=

>  <s_epik_input>  (1) 
W2NIXTFbY0hdW2NIXVtjSF1bY0hdYzFbQ0BASF0oW05IXTIpU1tDQEBIXShbQ0BIXTIzKVtDSDJdW0NIMl1OPUMzW0NIMl1bQ0BIXTRbQ0gyXVtDSDJdW0NASF0oW0NIMl1bQ0gyXTQpW0NIMl1bT0hd

>  <s_glide_docking_method>  (1) 
confgen

>  <s_i_glide_gridfile>  (1) 
gpcr_drd2_6luq_protein_autoprepared_prepared

>  <s_lp_Force_Field>  (1) 
S-OPLS

>  <s_lp_Variant>  (1) 
DiffSBDD_49_num_sample_100-2

>  <s_m_source_file>  (1) 
generated__ligand_DiffSBDD_2026-05-06_prepared.sdf

>  <GenAI_Model>  (1) 
DiffSBDD

>  <Protein>  (1) 
generic_title2

$$$$
DiffSBDD_70_num_sample_100
     RDKit          3D

  0  0  0  0  0  0  0  0  0  0999 V3000
M  V30 BEGIN CTAB
M  V30 COUNTS 76 78 0 0 1
M  V30 BEGIN ATOM
M  V30 1 C 6.103986 6.008998 -16.672169 0 CFG=1
M  V30 2 C 5.439801 8.282482 -16.984282 0
M  V30 3 C 7.210911 4.129916 -15.760160 0 CFG=1
M  V30 4 C 6.527221 4.594220 -11.128412 0
M  V30 5 C 7.781776 1.203128 -13.510713 0
M  V30 6 Cl 6.635998 -0.154711 -13.478080 0
M  V30 7 C 7.752522 4.567472 -10.208404 0
M  V30 8 C 5.544328 8.086600 -15.500522 0
M  V30 9 C 10.486098 7.197517 -9.587937 0
M  V30 10 C 5.586584 6.589235 -15.362943 0
M  V30 11 C 9.627734 5.935569 -9.300967 0 CFG=1
M  V30 12 C 7.365648 2.987707 -16.777446 0
M  V30 13 C 8.221685 4.077313 -14.601754 0
M  V30 14 C 9.714088 8.895924 -7.102560 0
M  V30 15 C 6.937660 4.835221 -12.600093 0 CFG=1
M  V30 16 C 11.431840 7.662587 -8.473174 0 CFG=2
M  V30 17 O 6.683038 5.943904 -19.690253 0
M  V30 18 O 8.636366 8.569044 -6.293001 0
M  V30 19 C 10.714511 7.741929 -7.131809 0 CFG=2
M  V30 20 C 7.671015 6.197580 -12.577150 0
M  V30 21 C 6.234374 7.156134 -17.655170 0 CFG=2
M  V30 22 C 6.967135 2.467728 -13.253906 0
M  V30 23 C 9.103828 5.904828 -7.851176 0
M  V30 24 O 7.349087 5.354163 -16.463702 0
M  V30 25 C 10.156138 6.336314 -6.823472 0
M  V30 26 C 5.804797 6.868592 -19.100348 0
M  V30 27 C 8.890920 6.157979 -11.677494 0
M  V30 28 O 13.021495 8.568836 -9.877602 0
M  V30 29 O 4.485492 6.409337 -19.107015 0
M  V30 30 F 11.597576 8.016725 -6.177820 0
M  V30 31 N 8.508068 5.840125 -10.277236 0 CFG=1 CHG=1
M  V30 32 N 7.703315 3.740684 -13.248662 0
M  V30 33 O 12.005517 8.886876 -8.880778 0
M  V30 34 H 5.330253 5.369736 -17.057606 0
M  V30 35 H 4.393637 8.179953 -17.271845 0
M  V30 36 H 5.832271 9.279211 -17.170100 0
M  V30 37 H 6.231689 4.066908 -15.317615 0
M  V30 38 H 5.916279 3.705009 -10.990843 0
M  V30 39 H 5.877861 5.411577 -10.806068 0
M  V30 40 H 8.280560 1.205196 -14.477502 0
M  V30 41 H 8.528008 1.042213 -12.732269 0
M  V30 42 H 8.430355 3.774620 -10.514453 0
M  V30 43 H 7.411757 4.363065 -9.194450 0
M  V30 44 H 4.712328 8.549139 -14.969127 0
M  V30 45 H 6.483162 8.521164 -15.147477 0
M  V30 46 H 9.820725 8.027477 -9.830916 0
M  V30 47 H 11.086030 7.024515 -10.481103 0
M  V30 48 H 4.635300 6.137694 -15.128550 0
M  V30 49 H 6.233180 6.359974 -14.552042 0
M  V30 50 H 10.233126 5.044559 -9.431179 0
M  V30 51 H 7.100104 2.029543 -16.334698 0
M  V30 52 H 6.709640 3.143162 -17.635674 0
M  V30 53 H 8.385109 2.914493 -17.156387 0
M  V30 54 H 8.805862 4.993863 -14.578384 0
M  V30 55 H 8.969095 3.367415 -14.900199 0
M  V30 56 H 10.224496 9.766165 -6.688529 0
M  V30 57 H 9.300612 9.154982 -8.074275 0
M  V30 58 H 5.995260 4.932163 -13.133684 0
M  V30 59 H 12.235807 6.969336 -8.329876 0
M  V30 60 H 7.553345 6.310856 -19.681279 0
M  V30 61 H 7.993956 8.050969 -6.777438 0
M  V30 62 H 8.010916 6.543087 -13.548457 0
M  V30 63 H 6.985376 6.973794 -12.226365 0
M  V30 64 H 7.290566 7.371279 -17.729600 0
M  V30 65 H 6.504564 2.292342 -12.289555 0
M  V30 66 H 6.135736 2.500411 -13.955026 0
M  V30 67 H 8.239015 6.556715 -7.783590 0
M  V30 68 H 8.758180 4.908762 -7.576263 0
M  V30 69 H 9.732539 6.299314 -5.819110 0
M  V30 70 H 10.980511 5.622086 -6.822698 0
M  V30 71 H 5.852983 7.788679 -19.686098 0
M  V30 72 H 9.335869 7.145517 -11.777539 0
M  V30 73 H 9.622389 5.433714 -12.039463 0
M  V30 74 H 13.750034 9.099084 -9.567886 0
M  V30 75 H 4.455474 5.612294 -18.600218 0
M  V30 76 H 7.857377 6.582532 -9.998834 0
M  V30 END ATOM
M  V30 BEGIN BOND
M  V30 1 1 6 5
M  V30 2 1 7 4
M  V30 3 1 8 2
M  V30 4 1 10 1
M  V30 5 1 10 8
M  V30 6 1 11 9
M  V30 7 1 12 3
M  V30 8 1 13 3
M  V30 9 1 15 4
M  V30 10 1 16 9
M  V30 11 1 18 14
M  V30 12 1 19 14
M  V30 13 1 19 16
M  V30 14 1 20 15
M  V30 15 1 21 1
M  V30 16 1 21 2
M  V30 17 1 22 5
M  V30 18 1 23 11
M  V30 19 1 24 1
M  V30 20 1 24 3
M  V30 21 1 25 19
M  V30 22 1 25 23
M  V30 23 1 26 17
M  V30 24 1 26 21
M  V30 25 1 27 20
M  V30 26 1 29 26
M  V30 27 1 19 30 CFG=1
M  V30 28 1 31 7
M  V30 29 1 31 11
M  V30 30 1 31 27
M  V30 31 1 32 13
M  V30 32 1 32 15
M  V30 33 1 32 22
M  V30 34 1 33 16
M  V30 35 1 33 28
M  V30 36 1 1 34 CFG=3
M  V30 37 1 35 2
M  V30 38 1 36 2
M  V30 39 1 3 37 CFG=1
M  V30 40 1 38 4
M  V30 41 1 39 4
M  V30 42 1 40 5
M  V30 43 1 41 5
M  V30 44 1 42 7
M  V30 45 1 43 7
M  V30 46 1 44 8
M  V30 47 1 45 8
M  V30 48 1 46 9
M  V30 49 1 47 9
M  V30 50 1 48 10
M  V30 51 1 49 10
M  V30 52 1 11 50 CFG=1
M  V30 53 1 51 12
M  V30 54 1 52 12
M  V30 55 1 53 12
M  V30 56 1 54 13
M  V30 57 1 55 13
M  V30 58 1 56 14
M  V30 59 1 57 14
M  V30 60 1 15 58 CFG=3
M  V30 61 1 16 59 CFG=1
M  V30 62 1 60 17
M  V30 63 1 61 18
M  V30 64 1 62 20
M  V30 65 1 63 20
M  V30 66 1 21 64 CFG=3
M  V30 67 1 65 22
M  V30 68 1 66 22
M  V30 69 1 67 23
M  V30 70 1 68 23
M  V30 71 1 69 25
M  V30 72 1 70 25
M  V30 73 1 71 26
M  V30 74 1 72 27
M  V30 75 1 73 27
M  V30 76 1 74 28
M  V30 77 1 75 29
M  V30 78 1 31 76 CFG=1
M  V30 END BOND
M  V30 END CTAB
M  END
>  <i_epik_Tot_Q>  (1) 
1

>  <i_epik_Tot_abs_Q>  (1) 
1

>  <i_i_glide_confnum>  (1) 
2461

>  <i_i_glide_lignum>  (1) 
141

>  <i_i_glide_posenum>  (1) 
363

>  <i_i_glide_rotatable_bonds>  (1) 
15

>  <i_lp_mmshare_version>  (1) 
72125

>  <i_m_source_file_index>  (1) 
71

>  <i_f3d_flags>  (1) 
0

>  <num_sample>  (1) 
100

>  <b_lp_Chiralities_Consistent>  (1) 
1

>  <r_epik_Charging_Adjusted_Penalty>  (1) 
0.025762522161214964

>  <r_epik_Ionization_Penalty>  (1) 
0.015537266588199847

>  <r_epik_Ionization_Penalty_Charging>  (1) 
0.0050933563181465155

>  <r_epik_Ionization_Penalty_Neutral>  (1) 
0.010443910270053331

>  <r_epik_State_Penalty>  (1) 
0.020669165843068448

>  <r_glide_ring_energy>  (1) 
0

>  <r_i_docking_score>  (1) 
-5.553253821601742

>  <r_i_glide_ecoul>  (1) 
-11.013952283026981

>  <r_i_glide_eff_state_penalty>  (1) 
0.020669165843068448

>  <r_i_glide_einternal>  (1) 
26.672264785937916

>  <r_i_glide_emodel>  (1) 
-27.893758844285252

>  <r_i_glide_emodel_strain>  (1) 
4.3497430699548403

>  <r_i_glide_energy>  (1) 
-28.322312179255

>  <r_i_glide_erotb>  (1) 
0.82250602570520104

>  <r_i_glide_esite>  (1) 
-0.11946140205992127

>  <r_i_glide_evdw>  (1) 
-17.308359896228019

>  <r_i_glide_gscore>  (1) 
-5.5739229874448109

>  <r_i_glide_gscore_strain>  (1) 
0.08743576748871007

>  <r_i_glide_hbond>  (1) 
-0.43068905459349971

>  <r_i_glide_ligand_efficiency>  (1) 
-0.16828041883641642

>  <r_i_glide_ligand_efficiency_ln>  (1) 
-1.2350148967147778

>  <r_i_glide_ligand_efficiency_sa>  (1) 
-0.53976522048388209

>  <r_i_glide_lipo>  (1) 
-2.0443691629196619

>  <r_i_glide_metal>  (1) 
-0

>  <r_i_glide_rewards>  (1) 
-1.3718343238001918

>  <r_lp_Energy>  (1) 
61.015052999999995

>  <s_epik_Chemistry_Notes>  (1) 
This compound contains an acetal/aminal-like group ( X-CH(R)-Y where X, Y are N, S, or O) that may be acid/base labile, releasing an aldehyde.

>  <s_epik_cmdline>  (1) 
J2VwaWtfcHl0aG9uJywgJy1waHQnLCAnMS4wJywgJy1waCcsICc3LjQnLCAnLXRuJywgJzgnLCAnLW1hJywgJzUwMCcsICctaW1hZScsICc8aW5maWxlLm1hZT4nLCAnLW9tYWUnLCAnPG91dGZpbGUubWFlPic=

>  <s_epik_input>  (1) 
W09IXVtDSF0oW09IXSlbQ0BIXTFbQ0gyXVtDSDJdW0NIMl1bQ0BASF0xT1tDQEBIXShbQ0gzXSlbQ0gyXU4oW0NIMl1bQ0gyXUNsKVtDSF0yW0NIMl1bQ0gyXU4oW0NIMl1bQ0gyXTIpW0NASF0oW0NIMl1bQ0gyXTMpW0NIMl1bQ0BASF0oT1tPSF0pW0NAQF0zKEYpW0NIMl1bT0hd

>  <s_glide_docking_method>  (1) 
confgen

>  <s_i_glide_gridfile>  (1) 
gpcr_drd2_6luq_protein_autoprepared_prepared

>  <s_lp_Force_Field>  (1) 
S-OPLS

>  <s_lp_Variant>  (1) 
DiffSBDD_70_num_sample_100-1

>  <s_m_source_file>  (1) 
generated__ligand_DiffSBDD_2026-05-06_prepared.sdf

>  <GenAI_Model>  (1) 
DiffSBDD

>  <Protein>  (1) 
generic_title2

$$$$
DiffSBDD_5_num_sample_100
     RDKit          3D

  0  0  0  0  0  0  0  0  0  0999 V3000
M  V30 BEGIN CTAB
M  V30 COUNTS 68 72 0 0 1
M  V30 BEGIN ATOM
M  V30 1 N 9.558705 6.221412 -8.918122 0
M  V30 2 C 10.387986 6.199054 -7.704779 0
M  V30 3 C 4.310685 7.404904 -18.880230 0
M  V30 4 C 11.175505 9.092294 -9.197845 0
M  V30 5 C 6.327313 7.705868 -20.366027 0 CFG=2
M  V30 6 C 7.551651 4.565728 -11.273628 0
M  V30 7 C 8.808788 3.386543 -13.068984 0
M  V30 8 C 7.162088 5.609235 -16.288065 0
M  V30 9 C 11.585550 7.170808 -7.656855 0
M  V30 10 O 10.623444 6.101580 -12.650663 0
M  V30 11 C 9.276774 5.855138 -12.295833 0 CFG=2
M  V30 12 C 7.826522 7.372454 -20.497042 0
M  V30 13 C 5.480560 6.663945 -19.595803 0 CFG=2
M  V30 14 N 8.273459 4.031694 -14.271496 0
M  V30 15 C 9.921422 7.054486 -10.041098 0 CFG=1
M  V30 16 C 6.511999 4.445657 -18.770991 0
M  V30 17 O 4.603778 6.841766 -21.753504 0
M  V30 18 C 4.974824 5.854276 -20.812666 0 CFG=2
M  V30 19 C 8.799998 6.669512 -11.087776 0 CFG=2
M  V30 20 C 7.121875 3.665335 -17.768634 0
M  V30 21 C 6.557788 6.387483 -17.289670 0
M  V30 22 C 7.435198 4.237796 -16.516755 0
M  V30 23 C 8.901536 4.392719 -11.936156 0 CFG=1
M  V30 24 C 5.628652 7.823486 -21.738862 0
M  V30 25 C 8.023804 3.383080 -15.421106 0
M  V30 26 C 6.213433 5.811544 -18.530630 0
M  V30 27 C 8.488393 5.474276 -9.077363 0
M  V30 28 F 4.021228 4.972277 -20.518698 0
M  V30 29 C 11.309178 8.672888 -7.731178 0
M  V30 30 O 8.234830 2.181984 -15.590715 0
M  V30 31 O 8.082757 4.651972 -8.259902 0
M  V30 32 C 7.759429 5.742530 -10.388792 0 CFG=2
M  V30 33 C 9.869550 8.548123 -9.766615 0
M  V30 34 H 9.750234 6.375971 -6.836853 0
M  V30 35 H 10.772507 5.184705 -7.599978 0
M  V30 36 H 3.702721 7.983707 -19.573980 0
M  V30 37 H 3.674399 6.721251 -18.309812 0
M  V30 38 H 4.666859 8.147373 -18.167697 0
M  V30 39 H 11.225353 10.169147 -9.309305 0
M  V30 40 H 12.023590 8.741263 -9.786915 0
M  V30 41 H 6.261295 8.684730 -19.894023 0
M  V30 42 H 6.779253 4.782682 -12.013983 0
M  V30 43 H 7.184818 3.769275 -10.658266 0
M  V30 44 H 9.829514 3.029623 -13.091639 0
M  V30 45 H 8.193399 2.531493 -12.786955 0
M  V30 46 H 7.398244 6.062503 -15.339332 0
M  V30 47 H 12.155980 6.949907 -6.763837 0
M  V30 48 H 12.234854 6.969346 -8.491993 0
M  V30 49 H 10.939326 5.387996 -13.193257 0
M  V30 50 H 8.681544 6.207935 -13.136174 0
M  V30 51 H 7.994771 6.407398 -20.977404 0
M  V30 52 H 8.333523 8.133743 -21.092281 0
M  V30 53 H 8.317471 7.358236 -19.525989 0
M  V30 54 H 8.065380 5.015655 -14.217736 0
M  V30 55 H 10.915984 6.781861 -10.380381 0
M  V30 56 H 6.255645 3.987793 -19.709743 0
M  V30 57 H 5.777721 5.285642 -21.286310 0
M  V30 58 H 8.276826 7.551954 -11.457908 0
M  V30 59 H 7.324957 2.619326 -17.950943 0
M  V30 60 H 6.342233 7.425506 -17.098796 0
M  V30 61 H 9.608446 4.013064 -11.194652 0
M  V30 62 H 5.170758 8.804506 -21.873109 0
M  V30 63 H 6.313548 7.658562 -22.572277 0
M  V30 64 H 10.423671 8.940731 -7.153099 0
M  V30 65 H 12.146578 9.213529 -7.288430 0
M  V30 66 H 6.769795 6.169239 -10.291444 0
M  V30 67 H 9.034894 8.817602 -9.121333 0
M  V30 68 H 9.674410 8.969183 -10.738830 0
M  V30 END ATOM
M  V30 BEGIN BOND
M  V30 1 1 2 1
M  V30 2 1 9 2
M  V30 3 1 11 10
M  V30 4 1 12 5
M  V30 5 1 13 3 CFG=1
M  V30 6 1 13 5
M  V30 7 1 14 7
M  V30 8 1 15 1
M  V30 9 1 18 13
M  V30 10 1 18 17
M  V30 11 1 19 11
M  V30 12 1 19 15
M  V30 13 1 20 16
M  V30 14 2 21 8
M  V30 15 1 22 8
M  V30 16 2 22 20
M  V30 17 1 23 6
M  V30 18 1 23 7
M  V30 19 1 23 11
M  V30 20 1 24 5
M  V30 21 1 24 17
M  V30 22 1 25 14
M  V30 23 1 25 22
M  V30 24 1 26 13
M  V30 25 2 26 16
M  V30 26 1 26 21
M  V30 27 1 27 1
M  V30 28 1 28 18
M  V30 29 1 29 4
M  V30 30 1 29 9
M  V30 31 2 30 25
M  V30 32 2 31 27
M  V30 33 1 32 6
M  V30 34 1 32 19
M  V30 35 1 32 27
M  V30 36 1 33 4
M  V30 37 1 33 15
M  V30 38 1 34 2
M  V30 39 1 35 2
M  V30 40 1 36 3
M  V30 41 1 37 3
M  V30 42 1 38 3
M  V30 43 1 39 4
M  V30 44 1 40 4
M  V30 45 1 5 41 CFG=1
M  V30 46 1 42 6
M  V30 47 1 43 6
M  V30 48 1 44 7
M  V30 49 1 45 7
M  V30 50 1 46 8
M  V30 51 1 47 9
M  V30 52 1 48 9
M  V30 53 1 49 10
M  V30 54 1 11 50 CFG=3
M  V30 55 1 51 12
M  V30 56 1 52 12
M  V30 57 1 53 12
M  V30 58 1 54 14
M  V30 59 1 15 55 CFG=3
M  V30 60 1 56 16
M  V30 61 1 18 57 CFG=3
M  V30 62 1 19 58 CFG=3
M  V30 63 1 59 20
M  V30 64 1 60 21
M  V30 65 1 23 61 CFG=1
M  V30 66 1 62 24
M  V30 67 1 63 24
M  V30 68 1 64 29
M  V30 69 1 65 29
M  V30 70 1 32 66 CFG=1
M  V30 71 1 67 33
M  V30 72 1 68 33
M  V30 END BOND
M  V30 END CTAB
M  END
>  <i_epik_Tot_Q>  (1) 
0

>  <i_epik_Tot_abs_Q>  (1) 
0

>  <i_i_glide_confnum>  (1) 
232

>  <i_i_glide_lignum>  (1) 
8

>  <i_i_glide_posenum>  (1) 
382

>  <i_i_glide_rotatable_bonds>  (1) 
6

>  <i_lp_mmshare_version>  (1) 
72125

>  <i_m_source_file_index>  (1) 
6

>  <i_f3d_flags>  (1) 
0

>  <num_sample>  (1) 
100

>  <b_lp_Chiralities_Consistent>  (1) 
1

>  <r_epik_Charging_Adjusted_Penalty>  (1) 
0

>  <r_epik_Ionization_Penalty>  (1) 
1.9291304558021744e-07

>  <r_epik_Ionization_Penalty_Charging>  (1) 
0

>  <r_epik_Ionization_Penalty_Neutral>  (1) 
1.9291304558021744e-07

>  <r_epik_State_Penalty>  (1) 
-0

>  <r_glide_ring_energy>  (1) 
1.2564436429042196

>  <r_i_docking_score>  (1) 
-5.5497730925701774

>  <r_i_glide_ecoul>  (1) 
-6.2212343864630908

>  <r_i_glide_eff_state_penalty>  (1) 
-0

>  <r_i_glide_einternal>  (1) 
7.1100265146990758

>  <r_i_glide_emodel>  (1) 
-29.222767816525788

>  <r_i_glide_emodel_strain>  (1) 
0.42436139165893394

>  <r_i_glide_energy>  (1) 
-24.137815912712892

>  <r_i_glide_erotb>  (1) 
0.47823198043206561

>  <r_i_glide_esite>  (1) 
-0.16849335038619648

>  <r_i_glide_evdw>  (1) 
-17.9165815262498

>  <r_i_glide_gscore>  (1) 
-5.5497730925701774

>  <r_i_glide_gscore_strain>  (1) 
0

>  <r_i_glide_hbond>  (1) 
-0.32000000000000001

>  <r_i_glide_ligand_efficiency>  (1) 
-0.16817494219909629

>  <r_i_glide_ligand_efficiency_ln>  (1) 
-1.2342408006004082

>  <r_i_glide_ligand_efficiency_sa>  (1) 
-0.53942690054866516

>  <r_i_glide_lipo>  (1) 
-2.3965607284581987

>  <r_i_glide_metal>  (1) 
-0

>  <r_i_glide_rewards>  (1) 
-1.313936759875894

>  <r_lp_Energy>  (1) 
32.426643999999996

>  <r_lp_tautomer_probability>  (1) 
1

>  <s_epik_cmdline>  (1) 
J2VwaWtfcHl0aG9uJywgJy1waHQnLCAnMS4wJywgJy1waCcsICc3LjQnLCAnLXRuJywgJzgnLCAnLW1hJywgJzUwMCcsICctaW1hZScsICc8aW5maWxlLm1hZT4nLCAnLW9tYWUnLCAnPG91dGZpbGUubWFlPic=

>  <s_epik_input>  (1) 
W0NIMl0xW0NIMl1bQ0gyXVtDSDJdW0NIMl1bQ0BASF0oTjEyKVtDQEBIXTNbQ0BIXShDMj1PKVtDSDJdW0NASF0oW0NAQEhdM1tPSF0pW0NIMl1bTkhdQyg9TyljNFtjSF1bY0hdYyhbY0hdW2NIXTQpW0NAQF01KFtDSDNdKVtDQEBIXShbQ0gzXSlbQ0gyXU9bQ0BASF01Rg==

>  <s_glide_docking_method>  (1) 
confgen

>  <s_i_glide_gridfile>  (1) 
gpcr_drd2_6luq_protein_autoprepared_prepared

>  <s_lp_Force_Field>  (1) 
S-OPLS

>  <s_lp_Variant>  (1) 
DiffSBDD_5_num_sample_100-1

>  <s_m_source_file>  (1) 
generated__ligand_DiffSBDD_2026-05-06_prepared.sdf

>  <GenAI_Model>  (1) 
DiffSBDD

>  <Protein>  (1) 
generic_title2

$$$$
DiffSBDD_86_num_sample_100
     RDKit          3D

  0  0  0  0  0  0  0  0  0  0999 V3000
M  V30 BEGIN CTAB
M  V30 COUNTS 53 55 0 0 1
M  V30 BEGIN ATOM
M  V30 1 C 7.420215 2.211109 -14.508117 0
M  V30 2 O 9.410881 4.855934 -9.867841 0
M  V30 3 O 9.050226 8.636121 -7.530687 0
M  V30 4 C 11.434842 6.923111 -5.231260 0
M  V30 5 C 11.439737 8.529880 -7.238926 0 CFG=2
M  V30 6 C 7.755353 4.613191 -11.689924 0 CFG=2
M  V30 7 C 8.954298 6.018862 -9.198126 0
M  V30 8 C 11.835718 7.730724 -2.964604 0
M  V30 9 F 12.124014 10.070119 -2.583923 0
M  V30 10 C 11.906422 9.051764 -3.445605 0
M  V30 11 C 8.773350 4.909172 -14.108007 0
M  V30 12 O 9.720304 5.710330 -13.491591 0
M  V30 13 C 7.714145 4.283593 -13.184491 0 CFG=1
M  V30 14 F 7.041975 5.721998 -11.491667 0
M  V30 15 O 12.634916 8.169089 -7.896433 0
M  V30 16 C 10.321820 8.725861 -9.483528 0
M  V30 17 C 11.592043 6.670525 -3.854447 0
M  V30 18 C 7.834723 3.864536 -16.130830 0
M  V30 19 C 8.814256 4.721316 -15.433122 0
M  V30 20 C 11.526153 8.248995 -5.726928 0
M  V30 21 F 11.834957 10.584702 -5.279907 0
M  V30 22 C 10.215436 8.054312 -8.087919 0 CFG=2
M  V30 23 S 7.434878 0.569324 -14.695924 0
M  V30 24 C 9.202525 4.788534 -11.276944 0 CFG=1
M  V30 25 C 9.745901 5.958882 -12.095710 0
M  V30 26 C 11.752757 9.313941 -4.823290 0
M  V30 27 N 7.766074 2.836645 -13.346627 0
M  V30 28 C 8.528220 8.045579 -6.361572 0
M  V30 29 N 7.040368 3.042881 -15.542346 0
M  V30 30 C 10.094996 6.511378 -8.294168 0
M  V30 31 H 11.282512 6.101265 -5.902378 0
M  V30 32 H 11.434804 9.615134 -7.319517 0
M  V30 33 H 7.261899 3.843159 -11.096738 0
M  V30 34 H 8.634879 6.776442 -9.897917 0
M  V30 35 H 8.070888 5.769210 -8.609292 0
M  V30 36 H 11.958384 7.533367 -1.909980 0
M  V30 37 H 6.735615 4.615208 -13.537912 0
M  V30 38 H 12.607179 8.521947 -8.773063 0
M  V30 39 H 10.980193 8.166362 -10.148115 0
M  V30 40 H 10.714333 9.739837 -9.446122 0
M  V30 41 H 9.349233 8.798885 -9.969947 0
M  V30 42 H 11.535804 5.662549 -3.481956 0
M  V30 43 H 7.834352 3.969918 -17.218856 0
M  V30 44 H 9.559004 5.199668 -16.051796 0
M  V30 45 H 9.751020 3.894609 -11.576912 0
M  V30 46 H 9.197254 6.885462 -11.931911 0
M  V30 47 H 10.778842 6.169298 -11.825472 0
M  V30 48 H 8.057474 2.271671 -12.561078 0
M  V30 49 H 7.624029 8.569277 -6.122695 0
M  V30 50 H 9.149018 8.161629 -5.491675 0
M  V30 51 H 8.241010 7.001383 -6.479184 0
M  V30 52 H 11.036757 6.168975 -8.714327 0
M  V30 53 H 9.972273 5.960633 -7.370908 0
M  V30 END ATOM
M  V30 BEGIN BOND
M  V30 1 1 7 2
M  V30 2 1 10 8
M  V30 3 1 10 9
M  V30 4 1 12 11
M  V30 5 1 13 6
M  V30 6 1 13 11
M  V30 7 1 14 6
M  V30 8 1 15 5
M  V30 9 1 17 4
M  V30 10 2 17 8
M  V30 11 2 19 11
M  V30 12 1 19 18
M  V30 13 2 20 4
M  V30 14 1 20 5
M  V30 15 1 22 3 CFG=1
M  V30 16 1 22 5
M  V30 17 1 22 16
M  V30 18 2 23 1
M  V30 19 1 24 2
M  V30 20 1 24 6
M  V30 21 1 25 12
M  V30 22 1 25 24
M  V30 23 2 26 10
M  V30 24 1 26 20
M  V30 25 1 26 21
M  V30 26 1 27 1
M  V30 27 1 27 13
M  V30 28 1 28 3
M  V30 29 1 29 1
M  V30 30 2 29 18
M  V30 31 1 30 7
M  V30 32 1 30 22
M  V30 33 1 31 4
M  V30 34 1 5 32 CFG=1
M  V30 35 1 6 33 CFG=1
M  V30 36 1 34 7
M  V30 37 1 35 7
M  V30 38 1 36 8
M  V30 39 1 13 37 CFG=3
M  V30 40 1 38 15
M  V30 41 1 39 16
M  V30 42 1 40 16
M  V30 43 1 41 16
M  V30 44 1 42 17
M  V30 45 1 43 18
M  V30 46 1 44 19
M  V30 47 1 24 45 CFG=3
M  V30 48 1 46 25
M  V30 49 1 47 25
M  V30 50 1 48 27
M  V30 51 1 49 28
M  V30 52 1 50 28
M  V30 53 1 51 28
M  V30 54 1 52 30
M  V30 55 1 53 30
M  V30 END BOND
M  V30 END CTAB
M  END
>  <i_epik_Tot_Q>  (1) 
0

>  <i_epik_Tot_abs_Q>  (1) 
0

>  <i_i_glide_confnum>  (1) 
44

>  <i_i_glide_lignum>  (1) 
176

>  <i_i_glide_posenum>  (1) 
307

>  <i_i_glide_rotatable_bonds>  (1) 
8

>  <i_lp_mmshare_version>  (1) 
72125

>  <i_m_source_file_index>  (1) 
87

>  <i_f3d_flags>  (1) 
0

>  <num_sample>  (1) 
100

>  <b_lp_Chiralities_Consistent>  (1) 
1

>  <r_epik_Charging_Adjusted_Penalty>  (1) 
0

>  <r_epik_Ionization_Penalty>  (1) 
0.00043041881029206555

>  <r_epik_Ionization_Penalty_Charging>  (1) 
0

>  <r_epik_Ionization_Penalty_Neutral>  (1) 
0.00043041881029206555

>  <r_epik_State_Penalty>  (1) 
-0

>  <r_glide_ring_energy>  (1) 
0

>  <r_i_docking_score>  (1) 
-5.5403414198233953

>  <r_i_glide_ecoul>  (1) 
-1.443374075263095

>  <r_i_glide_eff_state_penalty>  (1) 
-0

>  <r_i_glide_einternal>  (1) 
17.299718668729259

>  <r_i_glide_emodel>  (1) 
-31.135313539181034

>  <r_i_glide_emodel_strain>  (1) 
1.8069618493440629

>  <r_i_glide_energy>  (1) 
-29.464694707752596

>  <r_i_glide_erotb>  (1) 
0.40494693264899051

>  <r_i_glide_esite>  (1) 
-0.082954468631666042

>  <r_i_glide_evdw>  (1) 
-28.021320632489502

>  <r_i_glide_gscore>  (1) 
-5.5403414198233953

>  <r_i_glide_gscore_strain>  (1) 
0

>  <r_i_glide_hbond>  (1) 
0

>  <r_i_glide_ligand_efficiency>  (1) 
-0.1846780473274465

>  <r_i_glide_ligand_efficiency_ln>  (1) 
-1.2588259374386501

>  <r_i_glide_ligand_efficiency_sa>  (1) 
-0.57383763179192704

>  <r_i_glide_lipo>  (1) 
-2.6055092871561305

>  <r_i_glide_metal>  (1) 
-0

>  <r_i_glide_rewards>  (1) 
-1.6392524537706512

>  <r_lp_Energy>  (1) 
48.950238999999996

>  <r_lp_tautomer_probability>  (1) 
1

>  <s_epik_Chemistry_Notes>  (1) 
This compound has an imine and may undergo hydrolysis.

>  <s_epik_cmdline>  (1) 
J2VwaWtfcHl0aG9uJywgJy1waHQnLCAnMS4wJywgJy1waCcsICc3LjQnLCAnLXRuJywgJzgnLCAnLW1hJywgJzUwMCcsICctaW1hZScsICc8aW5maWxlLm1hZT4nLCAnLW9tYWUnLCAnPG91dGZpbGUubWFlPic=

>  <s_epik_input>  (1) 
W0NIXTFbQ0hdPU5DKD1TKVtOSF1bQ0BIXShDPTEyKVtDQEhdKEYpW0NAQEhdKFtDSDJdTzIpT1tDSDJdW0NIMl1bQ0BAXShbQ0gzXSkoT1tDSDNdKVtDQEhdKFtPSF0pYyhjM0YpW2NIXVtjSF1bY0hdYzNG

>  <s_glide_docking_method>  (1) 
confgen

>  <s_i_glide_gridfile>  (1) 
gpcr_drd2_6luq_protein_autoprepared_prepared

>  <s_lp_Force_Field>  (1) 
S-OPLS

>  <s_lp_Variant>  (1) 
DiffSBDD_86_num_sample_100-1

>  <s_m_source_file>  (1) 
generated__ligand_DiffSBDD_2026-05-06_prepared.sdf

>  <GenAI_Model>  (1) 
DiffSBDD

>  <Protein>  (1) 
generic_title2

$$$$
DiffSBDD_47_num_sample_100
     RDKit          3D

  0  0  0  0  0  0  0  0  0  0999 V3000
M  V30 BEGIN CTAB
M  V30 COUNTS 61 67 0 0 1
M  V30 BEGIN ATOM
M  V30 1 C 11.118818 7.583207 -8.087786 0 CFG=1
M  V30 2 N 7.896113 4.969094 -9.492944 0
M  V30 3 N 10.052200 0.046630 -18.277206 0
M  V30 4 C 6.278102 7.539322 -14.928393 0
M  V30 5 C 7.433978 2.237280 -15.529726 0
M  V30 6 C 9.850448 6.597392 -10.011146 0
M  V30 7 C 10.826720 7.420039 -9.536679 0
M  V30 8 C 10.103332 -1.030686 -17.491691 0
M  V30 9 N 9.054224 -1.243925 -16.720827 0
M  V30 10 N 7.193870 3.339939 -13.306394 0 CHG=1
M  V30 11 N 7.657761 5.603120 -11.749392 0
M  V30 12 N 6.634897 1.451740 -16.474988 0
M  V30 13 N 8.959102 5.656982 -12.003715 0
M  V30 14 C 8.785130 0.549108 -17.886705 0
M  V30 15 C 8.193773 -0.228283 -16.950250 0
M  V30 16 C 9.242779 5.874781 -7.773042 0
M  V30 17 C 6.906546 2.124324 -14.088030 0
M  V30 18 N 8.203676 1.695959 -18.368860 0
M  V30 19 C 7.150821 4.969384 -10.653247 0
M  V30 20 C 6.395334 4.539263 -13.658302 0
M  V30 21 O 6.059961 4.400741 -10.696765 0
M  V30 22 O 5.778906 6.745092 -12.660222 0
M  V30 23 F 11.599280 8.092493 -10.408590 0
M  V30 24 C 6.894262 -0.013318 -16.293348 0 CFG=2
M  V30 25 C 5.753590 -0.844308 -16.897818 0
M  V30 26 C 6.854881 2.005065 -17.862632 0
M  V30 27 C 9.734304 6.458773 -11.422468 0
M  V30 28 C 6.829677 5.811735 -12.914518 0 CFG=1
M  V30 29 C 6.805046 7.200957 -13.545591 0 CFG=1
M  V30 30 C 10.305531 6.707490 -7.161042 0 CFG=2
M  V30 31 C 9.002910 5.800653 -9.097628 0
M  V30 32 C 11.482088 8.943237 -7.533674 0
M  V30 33 C 10.203161 8.225859 -7.128393 0 CFG=1
M  V30 34 H 7.483404 4.452299 -8.730901 0
M  V30 35 H 7.033756 8.083679 -15.491728 0
M  V30 36 H 5.992223 6.657205 -15.495239 0
M  V30 37 H 5.393976 8.169293 -14.844022 0
M  V30 38 H 7.398651 3.273466 -15.857122 0
M  V30 39 H 8.489815 1.967878 -15.565407 0
M  V30 40 H 10.952617 -1.693281 -17.491635 0
M  V30 41 H 8.176302 3.565317 -13.381031 0
M  V30 42 H 8.921427 -2.012860 -16.071303 0
M  V30 43 H 8.618569 5.320065 -7.091721 0
M  V30 44 H 7.376059 1.275784 -13.589607 0
M  V30 45 H 5.834845 1.936381 -14.057153 0
M  V30 46 H 8.626147 2.241854 -19.105444 0
M  V30 47 H 5.347784 4.339526 -13.428250 0
M  V30 48 H 6.444731 4.723615 -14.726301 0
M  V30 49 H 6.965290 -0.265521 -15.235358 0
M  V30 50 H 5.942405 -1.910899 -16.770784 0
M  V30 51 H 4.805678 -0.620596 -16.407571 0
M  V30 52 H 5.632553 -0.656804 -17.964863 0
M  V30 53 H 6.123903 1.561221 -18.538920 0
M  V30 54 H 6.682974 3.081517 -17.890803 0
M  V30 55 H 10.413613 7.084991 -11.999545 0
M  V30 56 H 7.435276 7.969562 -13.100719 0
M  V30 57 H 10.847020 6.209038 -6.359453 0
M  V30 58 H 11.435422 9.769276 -8.235348 0
M  V30 59 H 12.291105 8.984641 -6.807300 0
M  V30 60 H 9.277864 8.651011 -7.516247 0
M  V30 61 H 6.989208 3.142667 -12.335245 0
M  V30 END ATOM
M  V30 BEGIN BOND
M  V30 1 1 7 1
M  V30 2 2 7 6
M  V30 3 2 8 3
M  V30 4 1 9 8
M  V30 5 1 12 5
M  V30 6 1 13 11
M  V30 7 1 14 3
M  V30 8 1 15 9
M  V30 9 2 15 14
M  V30 10 1 17 5
M  V30 11 1 17 10
M  V30 12 1 18 14
M  V30 13 1 19 2
M  V30 14 1 19 11
M  V30 15 1 20 10
M  V30 16 2 21 19
M  V30 17 1 23 7
M  V30 18 1 24 12
M  V30 19 1 24 15
M  V30 20 1 25 24
M  V30 21 1 26 12
M  V30 22 1 26 18
M  V30 23 1 27 6
M  V30 24 2 27 13
M  V30 25 1 28 11
M  V30 26 1 28 20 CFG=3
M  V30 27 1 28 22
M  V30 28 1 29 4
M  V30 29 1 29 22
M  V30 30 1 29 28
M  V30 31 1 30 1
M  V30 32 1 30 16
M  V30 33 1 31 2
M  V30 34 1 31 6
M  V30 35 2 31 16
M  V30 36 1 1 32 CFG=1
M  V30 37 1 33 1
M  V30 38 1 33 30
M  V30 39 1 33 32
M  V30 40 1 34 2
M  V30 41 1 35 4
M  V30 42 1 36 4
M  V30 43 1 37 4
M  V30 44 1 38 5
M  V30 45 1 39 5
M  V30 46 1 40 8
M  V30 47 1 41 10
M  V30 48 1 42 9
M  V30 49 1 43 16
M  V30 50 1 44 17
M  V30 51 1 45 17
M  V30 52 1 46 18
M  V30 53 1 47 20
M  V30 54 1 48 20
M  V30 55 1 24 49 CFG=1
M  V30 56 1 50 25
M  V30 57 1 51 25
M  V30 58 1 52 25
M  V30 59 1 53 26
M  V30 60 1 54 26
M  V30 61 1 55 27
M  V30 62 1 29 56 CFG=1
M  V30 63 1 30 57 CFG=1
M  V30 64 1 58 32
M  V30 65 1 59 32
M  V30 66 1 33 60 CFG=3
M  V30 67 1 61 10
M  V30 END BOND
M  V30 END CTAB
M  END
>  <i_epik_Tot_Q>  (1) 
1

>  <i_epik_Tot_abs_Q>  (1) 
1

>  <i_i_glide_confnum>  (1) 
82

>  <i_i_glide_lignum>  (1) 
87

>  <i_i_glide_posenum>  (1) 
102

>  <i_i_glide_rotatable_bonds>  (1) 
6

>  <i_lp_mmshare_version>  (1) 
72125

>  <i_m_source_file_index>  (1) 
48

>  <i_f3d_flags>  (1) 
2

>  <num_sample>  (1) 
100

>  <b_lp_Chiralities_Consistent>  (1) 
0

>  <r_epik_Charging_Adjusted_Penalty>  (1) 
0.25375292515256775

>  <r_epik_Ionization_Penalty>  (1) 
0.18021772770564537

>  <r_epik_Ionization_Penalty_Charging>  (1) 
0.12840531132269745

>  <r_epik_Ionization_Penalty_Neutral>  (1) 
0.05181241638294791

>  <r_epik_State_Penalty>  (1) 
0.12534761382987034

>  <r_glide_ring_energy>  (1) 
0

>  <r_i_docking_score>  (1) 
-5.536442446868743

>  <r_i_glide_ecoul>  (1) 
-4.1300415690008432

>  <r_i_glide_eff_state_penalty>  (1) 
0.12534761382987034

>  <r_i_glide_einternal>  (1) 
7.8999476648325526

>  <r_i_glide_emodel>  (1) 
-54.710319382211658

>  <r_i_glide_emodel_strain>  (1) 
0.53139572322587014

>  <r_i_glide_energy>  (1) 
-43.334758262126812

>  <r_i_glide_erotb>  (1) 
0.58091350073026182

>  <r_i_glide_esite>  (1) 
-0.24635582459742245

>  <r_i_glide_evdw>  (1) 
-39.204716693125967

>  <r_i_glide_gscore>  (1) 
-5.6617900606986131

>  <r_i_glide_gscore_strain>  (1) 
0

>  <r_i_glide_hbond>  (1) 
-0.27373087423232467

>  <r_i_glide_ligand_efficiency>  (1) 
-0.16777098323844675

>  <r_i_glide_ligand_efficiency_ln>  (1) 
-1.2312761340187988

>  <r_i_glide_ligand_efficiency_sa>  (1) 
-0.53813118831447238

>  <r_i_glide_lipo>  (1) 
-1.4201444395508642

>  <r_i_glide_metal>  (1) 
-0

>  <r_i_glide_rewards>  (1) 
-1.7227303530418387

>  <r_lp_Energy>  (1) 
70.574212000000003

>  <r_lp_tautomer_probability>  (1) 
0.94542902837213583

>  <s_epik_Chemistry_Notes>  (1) 
This compound has an imine and may undergo hydrolysis. This compound contains an acetal/aminal-like group ( X-CH(R)-Y where X, Y are N, S, or O) that may be acid/base labile, releasing an aldehyde.

>  <s_epik_cmdline>  (1) 
J2VwaWtfcHl0aG9uJywgJy1waHQnLCAnMS4wJywgJy1waCcsICc3LjQnLCAnLXRuJywgJzgnLCAnLW1hJywgJzUwMCcsICctaW1hZScsICc8aW5maWxlLm1hZT4nLCAnLW9tYWUnLCAnPG91dGZpbGUubWFlPic=

>  <s_epik_input>  (1) 
W0NIMl0xW0NAQEhdMltDQEhdKEMxMjMpW0NIXT1DNEMoPUMzRilbQ0hdPU5OKEMoPU8pW05IXTQpW0NAXTUoT1tDQEBIXTVbQ0gzXSlbQ0gyXVtOSF1bQ0gyXVtDSDJdTihbQ0gyXVtOSF02KVtDQEBIXShbQ0gzXSlbQ0BIXShDNjcpTj1bQ0hdTj03

>  <s_glide_docking_method>  (1) 
confgen

>  <s_i_glide_gridfile>  (1) 
gpcr_drd2_6luq_protein_autoprepared_prepared

>  <s_lp_Force_Field>  (1) 
S-OPLS

>  <s_lp_Variant>  (1) 
DiffSBDD_47_num_sample_100-1

>  <s_m_source_file>  (1) 
generated__ligand_DiffSBDD_2026-05-06_prepared.sdf

>  <GenAI_Model>  (1) 
DiffSBDD

>  <Protein>  (1) 
generic_title2

$$$$
DiffSBDD_76_num_sample_100
     RDKit          3D

  0  0  0  0  0  0  0  0  0  0999 V3000
M  V30 BEGIN CTAB
M  V30 COUNTS 78 81 0 0 1
M  V30 BEGIN ATOM
M  V30 1 C 7.240578 3.775363 -14.445006 0
M  V30 2 C 6.580880 5.419572 -19.264149 0
M  V30 3 C 9.533061 5.409622 -13.386880 0
M  V30 4 N 7.099400 5.245530 -14.312327 0 CFG=1 CHG=1
M  V30 5 C 6.119119 6.081834 -20.437801 0
M  V30 6 C 12.000735 8.715181 -3.862950 0
M  V30 7 C 11.846540 7.385872 -3.912081 0
M  V30 8 C 10.691783 7.101805 -7.568780 0 CFG=1
M  V30 9 C 7.460237 4.147013 -16.950212 0
M  V30 10 N 9.492987 6.156168 -9.567648 0 CFG=1 CHG=1
M  V30 11 C 8.844344 4.949994 -8.990654 0
M  V30 12 C 6.643653 5.288334 -16.809825 0
M  V30 13 C 11.089717 6.671566 -5.023818 0
M  V30 14 C 5.346570 7.069176 -17.903542 0
M  V30 15 C 7.794890 3.709493 -18.236977 0
M  V30 16 C 9.458233 8.684310 -9.252381 0
M  V30 17 C 7.974646 3.403235 -15.737994 0
M  V30 18 C 9.219627 6.437975 -11.014435 0
M  V30 19 N 7.378481 4.321725 -19.354734 0
M  V30 20 O 7.526493 4.969229 -9.505144 0
M  V30 21 O 5.017614 7.620747 -22.735483 0
M  V30 22 C 10.431364 7.602512 -6.104957 0 CFG=1
M  V30 23 C 5.278406 7.235658 -20.337810 0
M  V30 24 C 9.341048 5.167000 -11.890486 0
M  V30 25 N 12.417288 8.840798 -8.263191 0 CHG=1
M  V30 26 C 9.527653 7.293156 -8.598254 0 CFG=2
M  V30 27 O 6.493345 5.597601 -21.666550 0 CHG=-1
M  V30 28 C 8.361361 6.024954 -14.186394 0
M  V30 29 C 6.183942 5.938080 -17.987803 0
M  V30 30 C 6.249629 5.795156 -15.408513 0
M  V30 31 C 12.089624 7.415345 -8.139991 0
M  V30 32 C 11.434812 9.574819 -4.867902 0
M  V30 33 C 10.715972 9.089291 -5.891683 0
M  V30 34 C 4.779455 7.964533 -21.578951 0
M  V30 35 C 4.900418 7.709294 -19.065306 0
M  V30 36 C 3.927809 9.207597 -21.325208 0
M  V30 37 H 7.741658 3.339468 -13.580957 0
M  V30 38 H 6.239234 3.341411 -14.458018 0
M  V30 39 H 10.404830 6.056735 -13.493264 0
M  V30 40 H 9.835162 4.472411 -13.842635 0
M  V30 41 H 12.556665 9.153118 -3.045209 0
M  V30 42 H 12.279425 6.765703 -3.139613 0
M  V30 43 H 10.729100 6.020979 -7.431356 0
M  V30 44 H 8.837207 4.913238 -7.900281 0
M  V30 45 H 9.434877 4.117105 -9.356752 0
M  V30 46 H 10.318629 6.057919 -4.556740 0
M  V30 47 H 11.795815 5.974717 -5.476718 0
M  V30 48 H 5.040719 7.451102 -16.944376 0
M  V30 49 H 8.420231 2.839026 -18.373410 0
M  V30 50 H 9.261780 9.369314 -8.446296 0
M  V30 51 H 10.362121 8.968904 -9.784724 0
M  V30 52 H 8.636329 8.832421 -9.953890 0
M  V30 53 H 7.895360 2.328660 -15.909098 0
M  V30 54 H 9.034902 3.626742 -15.673455 0
M  V30 55 H 8.234535 6.888197 -11.141395 0
M  V30 56 H 9.947805 7.169009 -11.366904 0
M  V30 57 H 7.056038 5.713991 -9.145597 0
M  V30 58 H 9.358888 7.522371 -5.921930 0
M  V30 59 H 10.212718 4.598756 -11.564056 0
M  V30 60 H 8.488785 4.504680 -11.749869 0
M  V30 61 H 13.331054 8.961756 -8.682934 0
M  V30 62 H 11.731508 9.310928 -8.835131 0
M  V30 63 H 8.632626 7.207409 -8.000439 0
M  V30 64 H 8.124666 7.014526 -13.793169 0
M  V30 65 H 8.729612 6.169293 -15.202910 0
M  V30 66 H 5.212295 5.521506 -15.218694 0
M  V30 67 H 6.300664 6.882771 -15.358897 0
M  V30 68 H 12.836841 6.969301 -7.491678 0
M  V30 69 H 12.187633 6.973276 -9.131856 0
M  V30 70 H 11.582594 10.639892 -4.790849 0
M  V30 71 H 10.300531 9.769053 -6.613289 0
M  V30 72 H 4.261601 8.568570 -18.977340 0
M  V30 73 H 4.491438 9.941554 -20.751302 0
M  V30 74 H 3.642921 9.663622 -22.272942 0
M  V30 75 H 3.019819 8.950310 -20.783000 0
M  V30 76 H 12.417896 9.254529 -7.340491 0
M  V30 77 H 6.595498 5.399244 -13.450374 0
M  V30 78 H 10.459442 5.872446 -9.598384 0
M  V30 END ATOM
M  V30 BEGIN BOND
M  V30 1 1 4 1
M  V30 2 2 5 2
M  V30 3 2 7 6
M  V30 4 1 11 10
M  V30 5 2 12 9
M  V30 6 1 13 7
M  V30 7 1 15 9
M  V30 8 1 17 1
M  V30 9 1 17 9
M  V30 10 1 18 10
M  V30 11 1 19 2
M  V30 12 2 19 15
M  V30 13 1 20 11
M  V30 14 1 22 8
M  V30 15 1 22 13
M  V30 16 1 23 5
M  V30 17 1 24 3
M  V30 18 1 24 18
M  V30 19 1 26 8
M  V30 20 1 26 10
M  V30 21 1 26 16
M  V30 22 1 27 5
M  V30 23 1 28 3
M  V30 24 1 28 4
M  V30 25 1 29 2
M  V30 26 1 29 12
M  V30 27 2 29 14
M  V30 28 1 30 4
M  V30 29 1 30 12
M  V30 30 1 31 8
M  V30 31 1 31 25
M  V30 32 1 32 6
M  V30 33 1 33 22
M  V30 34 2 33 32
M  V30 35 2 34 21
M  V30 36 1 34 23
M  V30 37 1 35 14
M  V30 38 2 35 23
M  V30 39 1 36 34
M  V30 40 1 37 1
M  V30 41 1 38 1
M  V30 42 1 39 3
M  V30 43 1 40 3
M  V30 44 1 41 6
M  V30 45 1 42 7
M  V30 46 1 8 43 CFG=1
M  V30 47 1 44 11
M  V30 48 1 45 11
M  V30 49 1 46 13
M  V30 50 1 47 13
M  V30 51 1 48 14
M  V30 52 1 49 15
M  V30 53 1 50 16
M  V30 54 1 51 16
M  V30 55 1 52 16
M  V30 56 1 53 17
M  V30 57 1 54 17
M  V30 58 1 55 18
M  V30 59 1 56 18
M  V30 60 1 57 20
M  V30 61 1 22 58 CFG=1
M  V30 62 1 59 24
M  V30 63 1 60 24
M  V30 64 1 61 25
M  V30 65 1 62 25
M  V30 66 1 26 63 CFG=1
M  V30 67 1 64 28
M  V30 68 1 65 28
M  V30 69 1 66 30
M  V30 70 1 67 30
M  V30 71 1 68 31
M  V30 72 1 69 31
M  V30 73 1 70 32
M  V30 74 1 71 33
M  V30 75 1 72 35
M  V30 76 1 73 36
M  V30 77 1 74 36
M  V30 78 1 75 36
M  V30 79 1 76 25
M  V30 80 1 4 77 CFG=1
M  V30 81 1 10 78 CFG=3
M  V30 END BOND
M  V30 END CTAB
M  END
>  <i_epik_Tot_Q>  (1) 
2

>  <i_epik_Tot_abs_Q>  (1) 
4

>  <i_i_glide_confnum>  (1) 
476

>  <i_i_glide_lignum>  (1) 
154

>  <i_i_glide_posenum>  (1) 
392

>  <i_i_glide_rotatable_bonds>  (1) 
12

>  <i_lp_mmshare_version>  (1) 
72125

>  <i_m_source_file_index>  (1) 
77

>  <i_f3d_flags>  (1) 
0

>  <num_sample>  (1) 
100

>  <b_lp_Chiralities_Consistent>  (1) 
1

>  <r_epik_Charging_Adjusted_Penalty>  (1) 
2.7385366295040585

>  <r_epik_Ionization_Penalty>  (1) 
1.4403839023663505

>  <r_epik_Ionization_Penalty_Charging>  (1) 
1.4088334024277234

>  <r_epik_Ionization_Penalty_Neutral>  (1) 
0.03155049993862722

>  <r_epik_State_Penalty>  (1) 
1.3297032270763354

>  <r_glide_ring_energy>  (1) 
0.68305203791256597

>  <r_i_docking_score>  (1) 
-5.5302424834458304

>  <r_i_glide_ecoul>  (1) 
-4.5366204412692221

>  <r_i_glide_eff_state_penalty>  (1) 
1.3297032270763354

>  <r_i_glide_einternal>  (1) 
14.662163378552627

>  <r_i_glide_emodel>  (1) 
-47.618392117991519

>  <r_i_glide_emodel_strain>  (1) 
2.4422255401826192

>  <r_i_glide_energy>  (1) 
-37.632283111509594

>  <r_i_glide_erotb>  (1) 
0.66625950385389887

>  <r_i_glide_esite>  (1) 
-0.07980900877574823

>  <r_i_glide_evdw>  (1) 
-33.095662670240372

>  <r_i_glide_gscore>  (1) 
-6.8599457105221662

>  <r_i_glide_gscore_strain>  (1) 
0

>  <r_i_glide_hbond>  (1) 
-0.10840266119544965

>  <r_i_glide_ligand_efficiency>  (1) 
-0.15361784676238419

>  <r_i_glide_ligand_efficiency_ln>  (1) 
-1.2065495000024173

>  <r_i_glide_ligand_efficiency_sa>  (1) 
-0.50723495414123565

>  <r_i_glide_lipo>  (1) 
-3.8609142944786567

>  <r_i_glide_metal>  (1) 
-0

>  <r_i_glide_rewards>  (1) 
-1.1418030502238095

>  <r_lp_Energy>  (1) 
79.955849000000001

>  <r_lp_tautomer_probability>  (1) 
0.99995000000000001

>  <s_epik_Chemistry_Notes>  (1) 
This compound contains an acetal/aminal-like group ( X-CH(R)-Y where X, Y are N, S, or O) that may be acid/base labile, releasing an aldehyde.

>  <s_epik_cmdline>  (1) 
J2VwaWtfcHl0aG9uJywgJy1waHQnLCAnMS4wJywgJy1waCcsICc3LjQnLCAnLXRuJywgJzgnLCAnLW1hJywgJzUwMCcsICctaW1hZScsICc8aW5maWxlLm1hZT4nLCAnLW9tYWUnLCAnPG91dGZpbGUubWFlPic=

>  <s_epik_input>  (1) 
Tz1DKFtDSDNdKWMoYzFbT0hdKVtjSF1bY0hdYyhjMTIpYzNjKFtjSF1uMilbQ0gyXVtDSDJdTihbQ0gyXTMpW0NIMl1bQ0gyXVtDSDJdW0NIMl1OKFtDSDJdW09IXSlbQ0BIXShbQ0gzXSlbQ0BASF0oW0NIMl1bTkgyXSlbQ0BIXTRbQ0gyXVtDSF09W0NIXVtDSF09W0NIXTQ=

>  <s_glide_docking_method>  (1) 
confgen

>  <s_i_glide_gridfile>  (1) 
gpcr_drd2_6luq_protein_autoprepared_prepared

>  <s_lp_Force_Field>  (1) 
S-OPLS

>  <s_lp_Variant>  (1) 
DiffSBDD_76_num_sample_100-3

>  <s_m_source_file>  (1) 
generated__ligand_DiffSBDD_2026-05-06_prepared.sdf

>  <GenAI_Model>  (1) 
DiffSBDD

>  <Protein>  (1) 
generic_title2

$$$$
DiffSBDD_20_num_sample_100
     RDKit          3D

  0  0  0  0  0  0  0  0  0  0999 V3000
M  V30 BEGIN CTAB
M  V30 COUNTS 52 53 0 0 1
M  V30 BEGIN ATOM
M  V30 1 C 11.067812 7.242497 -4.928345 0
M  V30 2 C 6.667304 5.998321 -13.330594 0 CFG=2
M  V30 3 C 11.801589 9.003447 -7.554306 0
M  V30 4 C 11.434863 6.481787 -3.806027 0
M  V30 5 C 11.489528 8.582686 -5.036033 0
M  V30 6 C 6.902254 4.843436 -15.585244 0
M  V30 7 C 11.099551 9.413427 -6.243455 0
M  V30 8 C 9.793784 7.585125 -8.330608 0
M  V30 9 C 12.217400 7.052737 -2.784978 0
M  V30 10 C 8.370784 5.426443 -11.510704 0
M  V30 11 S 9.680230 6.472144 -10.834196 0
M  V30 12 C 12.275317 9.151970 -4.014015 0
M  V30 13 C 6.265567 7.300689 -12.612844 0
M  V30 14 C 8.522425 4.284542 -13.739817 0
M  V30 15 O 7.715041 4.644367 -10.822927 0
M  V30 16 C 11.328773 7.680219 -8.162533 0
M  V30 17 C 8.123302 5.576543 -13.009412 0 CFG=1
M  V30 18 C 9.312927 6.326204 -9.059534 0 CFG=1
M  V30 19 C 12.634855 8.389396 -2.888700 0
M  V30 20 C 9.813660 5.040370 -8.407581 0
M  V30 21 C 6.490579 6.132183 -14.855810 0
M  V30 22 C 8.346005 4.438527 -15.257133 0
M  V30 23 H 10.462128 6.797526 -5.700623 0
M  V30 24 H 5.991916 5.211300 -12.989816 0
M  V30 25 H 11.632555 9.769295 -8.308050 0
M  V30 26 H 12.881054 8.969269 -7.401418 0
M  V30 27 H 11.112351 5.459350 -3.727393 0
M  V30 28 H 6.779437 4.965654 -16.661766 0
M  V30 29 H 6.235011 4.038303 -15.279617 0
M  V30 30 H 10.017901 9.369308 -6.345927 0
M  V30 31 H 11.329748 10.458789 -6.035188 0
M  V30 32 H 9.290695 7.604318 -7.365598 0
M  V30 33 H 9.432371 8.465280 -8.864638 0
M  V30 34 H 12.494661 6.463912 -1.922581 0
M  V30 35 H 12.602472 10.169278 -4.093612 0
M  V30 36 H 7.034792 8.065379 -12.738100 0
M  V30 37 H 5.317930 7.690615 -12.985582 0
M  V30 38 H 6.140809 7.140548 -11.540688 0
M  V30 39 H 9.555866 4.040761 -13.491548 0
M  V30 40 H 7.914789 3.449344 -13.386677 0
M  V30 41 H 11.811556 7.560187 -9.132753 0
M  V30 42 H 11.707326 6.867115 -7.547829 0
M  V30 43 H 8.780901 6.370215 -13.363260 0
M  V30 44 H 8.234888 6.263207 -8.952695 0
M  V30 45 H 13.235943 8.831127 -2.107059 0
M  V30 46 H 9.378636 4.969299 -7.413861 0
M  V30 47 H 9.508221 4.169293 -8.976484 0
M  V30 48 H 10.889622 5.004632 -8.291658 0
M  V30 49 H 7.085113 6.967870 -15.225971 0
M  V30 50 H 5.451392 6.364591 -15.091616 0
M  V30 51 H 9.038461 5.188983 -15.640522 0
M  V30 52 H 8.594872 3.503590 -15.760051 0
M  V30 END ATOM
M  V30 BEGIN BOND
M  V30 1 1 4 1
M  V30 2 2 5 1
M  V30 3 1 7 3
M  V30 4 1 7 5
M  V30 5 2 9 4
M  V30 6 1 11 10
M  V30 7 1 12 5
M  V30 8 1 13 2
M  V30 9 2 15 10
M  V30 10 1 16 3
M  V30 11 1 16 8
M  V30 12 1 17 2
M  V30 13 1 17 10
M  V30 14 1 17 14
M  V30 15 1 18 8
M  V30 16 1 18 11
M  V30 17 1 19 9
M  V30 18 2 19 12
M  V30 19 1 20 18
M  V30 20 1 21 2
M  V30 21 1 21 6
M  V30 22 1 22 6
M  V30 23 1 22 14
M  V30 24 1 23 1
M  V30 25 1 2 24 CFG=1
M  V30 26 1 25 3
M  V30 27 1 26 3
M  V30 28 1 27 4
M  V30 29 1 28 6
M  V30 30 1 29 6
M  V30 31 1 30 7
M  V30 32 1 31 7
M  V30 33 1 32 8
M  V30 34 1 33 8
M  V30 35 1 34 9
M  V30 36 1 35 12
M  V30 37 1 36 13
M  V30 38 1 37 13
M  V30 39 1 38 13
M  V30 40 1 39 14
M  V30 41 1 40 14
M  V30 42 1 41 16
M  V30 43 1 42 16
M  V30 44 1 17 43 CFG=3
M  V30 45 1 18 44 CFG=3
M  V30 46 1 45 19
M  V30 47 1 46 20
M  V30 48 1 47 20
M  V30 49 1 48 20
M  V30 50 1 49 21
M  V30 51 1 50 21
M  V30 52 1 51 22
M  V30 53 1 52 22
M  V30 END BOND
M  V30 END CTAB
M  END
>  <i_epik_Tot_Q>  (1) 
0

>  <i_epik_Tot_abs_Q>  (1) 
0

>  <i_i_glide_confnum>  (1) 
129

>  <i_i_glide_lignum>  (1) 
32

>  <i_i_glide_posenum>  (1) 
72

>  <i_i_glide_rotatable_bonds>  (1) 
8

>  <i_lp_mmshare_version>  (1) 
72125

>  <i_m_source_file_index>  (1) 
21

>  <i_f3d_flags>  (1) 
0

>  <num_sample>  (1) 
100

>  <b_lp_Chiralities_Consistent>  (1) 
1

>  <r_epik_Charging_Adjusted_Penalty>  (1) 
0

>  <r_epik_Ionization_Penalty>  (1) 
0

>  <r_epik_Ionization_Penalty_Charging>  (1) 
0

>  <r_epik_Ionization_Penalty_Neutral>  (1) 
0

>  <r_epik_State_Penalty>  (1) 
-0

>  <r_glide_ring_energy>  (1) 
0

>  <r_i_docking_score>  (1) 
-5.5301239222810441

>  <r_i_glide_ecoul>  (1) 
-1.5170236678972215

>  <r_i_glide_eff_state_penalty>  (1) 
-0

>  <r_i_glide_einternal>  (1) 
5.3915807274511423

>  <r_i_glide_emodel>  (1) 
-39.66168612388735

>  <r_i_glide_emodel_strain>  (1) 
0.56919881050332322

>  <r_i_glide_energy>  (1) 
-31.606552545605069

>  <r_i_glide_erotb>  (1) 
1.2864650569138796

>  <r_i_glide_esite>  (1) 
-0.016707791465194837

>  <r_i_glide_evdw>  (1) 
-30.089528877707849

>  <r_i_glide_gscore>  (1) 
-5.5301239222810441

>  <r_i_glide_gscore_strain>  (1) 
0

>  <r_i_glide_hbond>  (1) 
0

>  <r_i_glide_ligand_efficiency>  (1) 
-0.2513692691945929

>  <r_i_glide_ligand_efficiency_ln>  (1) 
-1.3517640027766991

>  <r_i_glide_ligand_efficiency_sa>  (1) 
-0.70434657880135099

>  <r_i_glide_lipo>  (1) 
-2.9916458446990548

>  <r_i_glide_metal>  (1) 
-0

>  <r_i_glide_rewards>  (1) 
-2.076205348960698

>  <r_lp_Energy>  (1) 
15.270403

>  <r_lp_tautomer_probability>  (1) 
1

>  <s_epik_cmdline>  (1) 
J2VwaWtfcHl0aG9uJywgJy1waHQnLCAnMS4wJywgJy1waCcsICc3LjQnLCAnLXRuJywgJzgnLCAnLW1hJywgJzUwMCcsICctaW1hZScsICc8aW5maWxlLm1hZT4nLCAnLW9tYWUnLCAnPG91dGZpbGUubWFlPic=

>  <s_epik_input>  (1) 
W2NIXTFbY0hdW2NIXVtjSF1bY0hdYzFbQ0gyXVtDSDJdW0NIMl1bQ0gyXVtDQEhdKFtDSDNdKVNDKD1PKVtDQEhdKFtDQEhdMltDSDNdKVtDSDJdW0NIMl1bQ0gyXVtDSDJdMg==

>  <s_glide_docking_method>  (1) 
confgen

>  <s_i_glide_gridfile>  (1) 
gpcr_drd2_6luq_protein_autoprepared_prepared

>  <s_lp_Force_Field>  (1) 
S-OPLS

>  <s_lp_Variant>  (1) 
DiffSBDD_20_num_sample_100-1

>  <s_m_source_file>  (1) 
generated__ligand_DiffSBDD_2026-05-06_prepared.sdf

>  <GenAI_Model>  (1) 
DiffSBDD

>  <Protein>  (1) 
generic_title2

$$$$
DiffSBDD_42_num_sample_100
     RDKit          3D

  0  0  0  0  0  0  0  0  0  0999 V3000
M  V30 BEGIN CTAB
M  V30 COUNTS 45 46 0 0 1
M  V30 BEGIN ATOM
M  V30 1 C 7.120462 5.246367 -15.140956 0 CFG=2
M  V30 2 O 8.572055 4.369634 -16.853508 0
M  V30 3 N 9.980583 5.466665 -12.438110 0
M  V30 4 C 9.138853 4.816962 -8.105169 0
M  V30 5 C 12.811395 7.558395 -13.091668 0
M  V30 6 O 11.834834 6.569301 -12.902296 0
M  V30 7 C 9.288283 5.272773 -9.530536 0 CFG=1
M  V30 8 N 6.838207 5.767181 -17.560843 0
M  V30 9 C 7.958931 4.467610 -13.030038 0 CFG=2
M  V30 10 C 5.473363 6.925549 -15.863100 0
M  V30 11 C 8.729135 4.491502 -10.702387 0
M  V30 12 C 7.443689 2.256528 -13.719044 0
M  V30 13 O 8.229308 5.009302 -14.288856 0
M  V30 14 C 7.597621 5.078458 -16.606510 0
M  V30 15 C 10.645442 6.668111 -12.291670 0
M  V30 16 N 8.696985 5.205790 -11.988575 0
M  V30 17 C 5.085639 7.268536 -18.365694 0
M  V30 18 O 10.234840 7.672870 -11.711405 0
M  V30 19 C 6.588072 6.651335 -14.868326 0
M  V30 20 N 8.234840 5.769301 -8.691670 0 CHG=1
M  V30 21 O 8.313100 3.119551 -13.006257 0
M  V30 22 C 5.887992 6.579516 -17.283427 0
M  V30 23 H 6.336033 4.506342 -14.972469 0
M  V30 24 H 10.457420 4.734670 -12.954352 0
M  V30 25 H 8.579254 3.913437 -7.888289 0
M  V30 26 H 9.670497 5.317479 -7.297597 0
M  V30 27 H 13.712245 7.048177 -13.429695 0
M  V30 28 H 12.525717 8.238519 -13.891667 0
M  V30 29 H 13.034899 8.102557 -12.172910 0
M  V30 30 H 10.039085 6.035148 -9.711027 0
M  V30 31 H 6.910306 4.587160 -12.748754 0
M  V30 32 H 5.138423 7.961927 -15.800788 0
M  V30 33 H 4.634841 6.284584 -15.611741 0
M  V30 34 H 7.714474 4.169295 -10.465661 0
M  V30 35 H 9.328047 3.586325 -10.816224 0
M  V30 36 H 7.742988 1.222703 -13.547232 0
M  V30 37 H 6.410428 2.366149 -13.387487 0
M  V30 38 H 7.495060 2.438994 -14.792420 0
M  V30 39 H 4.019745 7.220378 -18.141873 0
M  V30 40 H 5.378811 8.314644 -18.440886 0
M  V30 41 H 5.254152 6.795398 -19.333520 0
M  V30 42 H 6.215271 6.737048 -13.847359 0
M  V30 43 H 7.387559 7.386091 -14.974301 0
M  V30 44 H 8.325731 6.763506 -8.512475 0
M  V30 45 H 7.323867 5.454133 -8.991020 0
M  V30 END ATOM
M  V30 BEGIN BOND
M  V30 1 1 6 5
M  V30 2 1 7 4
M  V30 3 1 11 7
M  V30 4 1 13 1
M  V30 5 1 13 9
M  V30 6 1 14 1
M  V30 7 2 14 2
M  V30 8 1 14 8
M  V30 9 1 15 3
M  V30 10 1 15 6
M  V30 11 1 16 3
M  V30 12 1 16 9
M  V30 13 1 16 11
M  V30 14 2 18 15
M  V30 15 1 19 1
M  V30 16 1 19 10
M  V30 17 1 20 4
M  V30 18 1 20 7
M  V30 19 1 21 9
M  V30 20 1 21 12
M  V30 21 2 22 8
M  V30 22 1 22 10
M  V30 23 1 22 17
M  V30 24 1 1 23 CFG=1
M  V30 25 1 24 3
M  V30 26 1 25 4
M  V30 27 1 26 4
M  V30 28 1 27 5
M  V30 29 1 28 5
M  V30 30 1 29 5
M  V30 31 1 7 30 CFG=3
M  V30 32 1 9 31 CFG=1
M  V30 33 1 32 10
M  V30 34 1 33 10
M  V30 35 1 34 11
M  V30 36 1 35 11
M  V30 37 1 36 12
M  V30 38 1 37 12
M  V30 39 1 38 12
M  V30 40 1 39 17
M  V30 41 1 40 17
M  V30 42 1 41 17
M  V30 43 1 42 19
M  V30 44 1 43 19
M  V30 45 1 44 20
M  V30 46 1 45 20
M  V30 END BOND
M  V30 END CTAB
M  END
>  <i_epik_Tot_Q>  (1) 
1

>  <i_epik_Tot_abs_Q>  (1) 
1

>  <i_i_glide_confnum>  (1) 
416

>  <i_i_glide_lignum>  (1) 
73

>  <i_i_glide_posenum>  (1) 
135

>  <i_i_glide_rotatable_bonds>  (1) 
9

>  <i_lp_mmshare_version>  (1) 
72125

>  <i_m_source_file_index>  (1) 
43

>  <i_f3d_flags>  (1) 
0

>  <num_sample>  (1) 
100

>  <b_lp_Chiralities_Consistent>  (1) 
1

>  <r_epik_Charging_Adjusted_Penalty>  (1) 
0.40508873970444137

>  <r_epik_Ionization_Penalty>  (1) 
0.2046740673665137

>  <r_epik_Ionization_Penalty_Charging>  (1) 
0.20254436985222068

>  <r_epik_Ionization_Penalty_Neutral>  (1) 
0.0021296975142930212

>  <r_epik_State_Penalty>  (1) 
0.20254436985222066

>  <r_glide_ring_energy>  (1) 
0.0014600404397044581

>  <r_i_docking_score>  (1) 
-5.5254928889724253

>  <r_i_glide_ecoul>  (1) 
-6.3370137818225576

>  <r_i_glide_eff_state_penalty>  (1) 
0.20254436985222066

>  <r_i_glide_einternal>  (1) 
23.768741123196925

>  <r_i_glide_emodel>  (1) 
-28.133301016808648

>  <r_i_glide_emodel_strain>  (1) 
1.7292493636254846

>  <r_i_glide_energy>  (1) 
-24.142011003768985

>  <r_i_glide_erotb>  (1) 
0.78560336261563779

>  <r_i_glide_esite>  (1) 
-0.10000000000000001

>  <r_i_glide_evdw>  (1) 
-17.804997221946429

>  <r_i_glide_gscore>  (1) 
-5.7280372588246458

>  <r_i_glide_gscore_strain>  (1) 
0

>  <r_i_glide_hbond>  (1) 
-0.34026775591035691

>  <r_i_glide_ligand_efficiency>  (1) 
-0.25115876768056478

>  <r_i_glide_ligand_efficiency_ln>  (1) 
-1.3506320093150284

>  <r_i_glide_ligand_efficiency_sa>  (1) 
-0.70375674527988175

>  <r_i_glide_lipo>  (1) 
-1.2458210708568005

>  <r_i_glide_metal>  (1) 
-0

>  <r_i_glide_rewards>  (1) 
-2.9867498663024219

>  <r_lp_Energy>  (1) 
15.805226999999999

>  <s_epik_Chemistry_Notes>  (1) 
This compound has an ester and may undergo hydrolysis at high or low pH. This compound has an imine and may undergo hydrolysis. This compound contains an acetal/aminal-like group ( X-CH(R)-Y where X, Y are N, S, or O) that may be acid/base labile, releasing an aldehyde.

>  <s_epik_cmdline>  (1) 
J2VwaWtfcHl0aG9uJywgJy1waHQnLCAnMS4wJywgJy1waCcsICc3LjQnLCAnLXRuJywgJzgnLCAnLW1hJywgJzUwMCcsICctaW1hZScsICc8aW5maWxlLm1hZT4nLCAnLW9tYWUnLCAnPG91dGZpbGUubWFlPic=

>  <s_epik_input>  (1) 
W0NIMl0xW0NIMl1DKFtDSDNdKT1OQyg9TylbQ0BIXTFPW0NAQEhdKE9bQ0gzXSlOKFtOSF1DKD1PKU9bQ0gzXSlbQ0gyXVtDQEBIXTJbQ0gyXVtOSF0y

>  <s_glide_docking_method>  (1) 
confgen

>  <s_i_glide_gridfile>  (1) 
gpcr_drd2_6luq_protein_autoprepared_prepared

>  <s_lp_Force_Field>  (1) 
S-OPLS

>  <s_lp_Variant>  (1) 
DiffSBDD_42_num_sample_100-1

>  <s_m_source_file>  (1) 
generated__ligand_DiffSBDD_2026-05-06_prepared.sdf

>  <GenAI_Model>  (1) 
DiffSBDD

>  <Protein>  (1) 
generic_title2

$$$$
DiffSBDD_26_num_sample_100
     RDKit          3D

  0  0  0  0  0  0  0  0  0  0999 V3000
M  V30 BEGIN CTAB
M  V30 COUNTS 72 77 0 0 1
M  V30 BEGIN ATOM
M  V30 1 C 6.657934 9.769655 -22.153883 0
M  V30 2 C 10.891536 7.320617 -8.117744 0
M  V30 3 C 9.686699 5.020493 -16.031914 0
M  V30 4 C 9.434839 7.887458 -10.664524 0
M  V30 5 F 7.602844 7.209576 -13.773273 0
M  V30 6 C 7.130047 5.331305 -19.713625 0 CFG=1
M  V30 7 C 7.510669 4.157111 -16.659123 0
M  V30 8 N 11.729464 8.509651 -6.369955 0
M  V30 9 C 5.128562 7.415038 -17.181467 0
M  V30 10 C 5.371949 6.943445 -18.623299 0 CFG=1
M  V30 11 C 4.908758 7.981832 -19.660404 0
M  V30 12 C 9.557858 6.581440 -10.131202 0
M  V30 13 C 10.943719 7.497611 -6.707442 0
M  V30 14 C 8.392190 5.691940 -12.089299 0
M  V30 15 N 12.234818 8.569296 -9.853003 0
M  V30 16 C 11.773773 8.261024 -8.582742 0
M  V30 17 O 12.294757 8.969335 -7.561179 0
M  V30 18 C 11.066951 5.532738 -16.388060 0
M  V30 19 C 6.720332 7.366608 -21.363034 0 CFG=2
M  V30 20 C 10.234802 6.722616 -5.642305 0
M  V30 21 N 10.149520 6.359251 -8.869447 0
M  V30 22 C 7.474427 6.713790 -20.206794 0 CFG=1
M  V30 23 C 7.357209 8.690080 -21.766624 0
M  V30 24 C 8.247282 4.335477 -19.409593 0
M  V30 25 C 8.777848 8.092033 -11.891667 0
M  V30 26 C 7.199570 4.103690 -15.292710 0
M  V30 27 C 5.143812 9.805868 -22.242134 0
M  V30 28 C 6.825183 6.551101 -18.847818 0 CFG=2
M  V30 29 C 7.848931 4.502305 -12.868215 0
M  V30 30 C 8.250012 7.001288 -12.600221 0
M  V30 31 C 9.034863 5.486611 -10.850354 0
M  V30 32 C 4.522573 8.399503 -22.159517 0
M  V30 33 O 9.149558 4.729441 -18.375970 0
M  V30 34 C 8.783189 4.632061 -17.044410 0
M  V30 35 C 5.194347 7.503352 -21.099055 0 CFG=2
M  V30 36 C 8.163765 4.523829 -14.360281 0
M  V30 37 N 9.396225 4.969301 -14.710518 0
M  V30 38 H 7.181382 10.675791 -22.423006 0
M  V30 39 H 12.916808 9.297398 -10.026962 0
M  V30 40 H 9.800952 8.735744 -10.117010 0
M  V30 41 H 6.287285 4.866403 -20.221007 0
M  V30 42 H 6.784340 3.848670 -17.393349 0
M  V30 43 H 5.711561 8.306137 -16.947877 0
M  V30 44 H 5.405083 6.642421 -16.462758 0
M  V30 45 H 4.077543 7.654984 -17.017888 0
M  V30 46 H 4.770425 6.044271 -18.764620 0
M  V30 47 H 3.841937 8.169543 -19.532273 0
M  V30 48 H 5.410007 8.934110 -19.482546 0
M  V30 49 H 11.916435 8.085658 -10.679404 0
M  V30 50 H 11.027149 6.173214 -17.268732 0
M  V30 51 H 11.732045 4.695618 -16.598659 0
M  V30 52 H 11.495912 6.109775 -15.568007 0
M  V30 53 H 6.858230 6.717169 -22.228001 0
M  V30 54 H 10.730033 5.769302 -5.471847 0
M  V30 55 H 9.200391 6.524265 -5.923970 0
M  V30 56 H 9.858351 5.513243 -8.402236 0
M  V30 57 H 8.540939 6.932915 -20.203223 0
M  V30 58 H 8.435924 8.739444 -21.732207 0
M  V30 59 H 7.827970 3.348294 -19.213044 0
M  V30 60 H 8.833681 4.212563 -20.320335 0
M  V30 61 H 8.667264 9.091262 -12.283171 0
M  V30 62 H 6.234834 3.754034 -14.963313 0
M  V30 63 H 4.852891 10.281682 -23.178940 0
M  V30 64 H 4.762012 10.435927 -21.439912 0
M  V30 65 H 7.478767 6.762402 -18.007115 0
M  V30 66 H 8.249366 3.576287 -12.453946 0
M  V30 67 H 6.768553 4.468674 -12.722620 0
M  V30 68 H 9.125191 4.487158 -10.449913 0
M  V30 69 H 3.450973 8.477793 -21.974408 0
M  V30 70 H 4.623846 7.916247 -23.132433 0
M  V30 71 H 4.747469 6.512918 -21.198457 0
M  V30 72 H 10.234815 7.254750 -4.693517 0
M  V30 END ATOM
M  V30 BEGIN BOND
M  V30 1 1 10 9
M  V30 2 1 11 10
M  V30 3 1 12 4
M  V30 4 1 13 2
M  V30 5 2 13 8
M  V30 6 2 16 2
M  V30 7 1 16 15
M  V30 8 1 17 8
M  V30 9 1 17 16
M  V30 10 1 18 3
M  V30 11 1 20 13
M  V30 12 1 21 2
M  V30 13 1 21 12
M  V30 14 1 22 6
M  V30 15 1 22 19
M  V30 16 2 23 1
M  V30 17 1 23 19
M  V30 18 1 24 6
M  V30 19 2 25 4
M  V30 20 2 26 7
M  V30 21 1 27 1
M  V30 22 1 28 6
M  V30 23 1 28 10
M  V30 24 1 28 22
M  V30 25 1 29 14
M  V30 26 1 30 5
M  V30 27 2 30 14
M  V30 28 1 30 25
M  V30 29 2 31 12
M  V30 30 1 31 14
M  V30 31 1 32 27
M  V30 32 1 33 24
M  V30 33 2 34 3
M  V30 34 1 34 7
M  V30 35 1 34 33
M  V30 36 1 35 11
M  V30 37 1 35 19
M  V30 38 1 35 32
M  V30 39 1 36 26
M  V30 40 1 36 29
M  V30 41 1 37 3
M  V30 42 2 37 36
M  V30 43 1 38 1
M  V30 44 1 39 15
M  V30 45 1 40 4
M  V30 46 1 6 41 CFG=3
M  V30 47 1 42 7
M  V30 48 1 43 9
M  V30 49 1 44 9
M  V30 50 1 45 9
M  V30 51 1 10 46 CFG=3
M  V30 52 1 47 11
M  V30 53 1 48 11
M  V30 54 1 49 15
M  V30 55 1 50 18
M  V30 56 1 51 18
M  V30 57 1 52 18
M  V30 58 1 19 53 CFG=3
M  V30 59 1 54 20
M  V30 60 1 55 20
M  V30 61 1 56 21
M  V30 62 1 22 57 CFG=1
M  V30 63 1 58 23
M  V30 64 1 59 24
M  V30 65 1 60 24
M  V30 66 1 61 25
M  V30 67 1 62 26
M  V30 68 1 63 27
M  V30 69 1 64 27
M  V30 70 1 28 65 CFG=1
M  V30 71 1 66 29
M  V30 72 1 67 29
M  V30 73 1 68 31
M  V30 74 1 69 32
M  V30 75 1 70 32
M  V30 76 1 35 71 CFG=1
M  V30 77 1 72 20
M  V30 END BOND
M  V30 END CTAB
M  END
>  <i_epik_Tot_Q>  (1) 
0

>  <i_epik_Tot_abs_Q>  (1) 
0

>  <i_i_glide_confnum>  (1) 
212

>  <i_i_glide_lignum>  (1) 
41

>  <i_i_glide_posenum>  (1) 
134

>  <i_i_glide_rotatable_bonds>  (1) 
7

>  <i_lp_mmshare_version>  (1) 
72125

>  <i_m_source_file_index>  (1) 
27

>  <i_f3d_flags>  (1) 
0

>  <num_sample>  (1) 
100

>  <b_lp_Chiralities_Consistent>  (1) 
1

>  <r_epik_Charging_Adjusted_Penalty>  (1) 
0

>  <r_epik_Ionization_Penalty>  (1) 
0.044548018534552827

>  <r_epik_Ionization_Penalty_Charging>  (1) 
0

>  <r_epik_Ionization_Penalty_Neutral>  (1) 
0.044548018534552827

>  <r_epik_State_Penalty>  (1) 
-0

>  <r_glide_ring_energy>  (1) 
0

>  <r_i_docking_score>  (1) 
-5.5047207864291616

>  <r_i_glide_ecoul>  (1) 
-1.3293810857455712

>  <r_i_glide_eff_state_penalty>  (1) 
-0

>  <r_i_glide_einternal>  (1) 
4.5147592432276529

>  <r_i_glide_emodel>  (1) 
-54.554006482997757

>  <r_i_glide_emodel_strain>  (1) 
0.010500774040934857

>  <r_i_glide_energy>  (1) 
-43.101959323999154

>  <r_i_glide_erotb>  (1) 
0.5661782271396133

>  <r_i_glide_esite>  (1) 
-0.030875182501641188

>  <r_i_glide_evdw>  (1) 
-41.77257823825358

>  <r_i_glide_gscore>  (1) 
-5.5047207864291616

>  <r_i_glide_gscore_strain>  (1) 
0

>  <r_i_glide_hbond>  (1) 
-0.17534089978896475

>  <r_i_glide_ligand_efficiency>  (1) 
-0.14877623747105842

>  <r_i_glide_ligand_efficiency_ln>  (1) 
-1.1938448896116582

>  <r_i_glide_ligand_efficiency_sa>  (1) 
-0.49575542950672841

>  <r_i_glide_lipo>  (1) 
-2.8218343739811274

>  <r_i_glide_metal>  (1) 
-0

>  <r_i_glide_rewards>  (1) 
-0.75481248252252719

>  <r_lp_Energy>  (1) 
47.597484999999999

>  <r_lp_tautomer_probability>  (1) 
1

>  <s_epik_cmdline>  (1) 
J2VwaWtfcHl0aG9uJywgJy1waHQnLCAnMS4wJywgJy1waCcsICc3LjQnLCAnLXRuJywgJzgnLCAnLW1hJywgJzUwMCcsICctaW1hZScsICc8aW5maWxlLm1hZT4nLCAnLW9tYWUnLCAnPG91dGZpbGUubWFlPic=

>  <s_epik_input>  (1) 
W0NIXTE9W0NIXVtDSDJdW0NIMl1bQ0BASF0yW0NIMl1bQ0BIXShbQ0gzXSlbQ0hdKFtDQEBIXTNbQ0BIXTEyKVtDQEBIXTNbQ0gyXU9jKGM0W0NIM10pW2NIXVtjSF1jKG40KVtDSDJdYyhbY0hdNSljKEYpW2NIXVtjSF1jNVtOSF1bQ0BIXTZDKD1bQ0gyXSlbTkhdT0MvNj1OXFtIXQ==

>  <s_glide_docking_method>  (1) 
confgen

>  <s_i_glide_gridfile>  (1) 
gpcr_drd2_6luq_protein_autoprepared_prepared

>  <s_lp_Force_Field>  (1) 
S-OPLS

>  <s_lp_Variant>  (1) 
DiffSBDD_26_num_sample_100-1

>  <s_m_source_file>  (1) 
generated__ligand_DiffSBDD_2026-05-06_prepared.sdf

>  <GenAI_Model>  (1) 
DiffSBDD

>  <Protein>  (1) 
generic_title2

$$$$
DiffSBDD_28_num_sample_100
     RDKit          3D

  0  0  0  0  0  0  0  0  0  0999 V3000
M  V30 BEGIN CTAB
M  V30 COUNTS 43 44 0 0 1
M  V30 BEGIN ATOM
M  V30 1 C 12.179503 6.770610 -2.531866 0
M  V30 2 C 9.063654 4.934953 -11.616962 0
M  V30 3 C 11.434583 6.736388 -3.881970 0
M  V30 4 N 10.704554 6.813656 -6.686499 0
M  V30 5 C 12.370348 9.285234 -2.675292 0
M  V30 6 C 10.482504 6.703459 -7.942334 0
M  V30 7 C 12.031096 9.150634 -4.141450 0
M  V30 8 O 10.767643 7.628329 -10.182957 0
M  V30 9 C 8.521024 5.769289 -9.359656 0
M  V30 10 C 6.780447 4.738215 -10.740323 0
M  V30 11 C 9.763016 5.470412 -8.506041 0
M  V30 12 C 9.117183 3.667762 -12.474867 0
M  V30 13 C 11.686488 8.949018 -7.018119 0
M  V30 14 N 11.482878 8.855956 -8.396790 0
M  V30 15 N 8.224796 4.758770 -10.405481 0 CFG=1 CHG=1
M  V30 16 C 11.968466 8.099206 -1.806046 0
M  V30 17 C 10.919669 7.770646 -8.970770 0
M  V30 18 C 11.331206 7.955726 -6.166913 0
M  V30 19 C 11.598017 8.006727 -4.719550 0
M  V30 20 H 11.854359 5.938296 -1.906340 0
M  V30 21 H 13.247585 6.626669 -2.692481 0
M  V30 22 H 8.699981 5.780788 -12.202830 0
M  V30 23 H 10.084283 5.185179 -11.334859 0
M  V30 24 H 10.372221 6.557989 -3.740484 0
M  V30 25 H 11.799885 5.880682 -4.450651 0
M  V30 26 H 13.452346 9.369291 -2.635218 0
M  V30 27 H 11.943800 10.204665 -2.277317 0
M  V30 28 H 12.162499 10.039166 -4.732176 0
M  V30 29 H 7.673647 5.811770 -8.677018 0
M  V30 30 H 8.634820 6.721221 -9.865660 0
M  V30 31 H 6.428402 5.733026 -11.018072 0
M  V30 32 H 6.551778 4.056863 -11.557575 0
M  V30 33 H 6.199985 4.393061 -9.891725 0
M  V30 34 H 10.464120 4.884275 -9.068380 0
M  V30 35 H 9.445395 4.836412 -7.679227 0
M  V30 36 H 9.834851 3.808747 -13.277036 0
M  V30 37 H 9.434911 2.803837 -11.891819 0
M  V30 38 H 8.162204 3.430476 -12.941915 0
M  V30 39 H 12.179855 9.857499 -6.717215 0
M  V30 40 H 11.800243 9.621427 -8.973343 0
M  V30 41 H 10.931518 8.169296 -1.491650 0
M  V30 42 H 12.570618 8.169296 -0.900895 0
M  V30 43 H 8.448059 3.855203 -10.013498 0
M  V30 END ATOM
M  V30 BEGIN BOND
M  V30 1 1 3 1
M  V30 2 2 6 4
M  V30 3 1 7 5
M  V30 4 1 11 6
M  V30 5 1 11 9
M  V30 6 1 12 2
M  V30 7 1 14 13
M  V30 8 1 15 2
M  V30 9 1 15 9
M  V30 10 1 15 10
M  V30 11 1 16 1
M  V30 12 1 16 5
M  V30 13 1 17 6
M  V30 14 2 17 8
M  V30 15 1 17 14
M  V30 16 1 18 4
M  V30 17 2 18 13
M  V30 18 1 19 3
M  V30 19 2 19 7
M  V30 20 1 19 18
M  V30 21 1 20 1
M  V30 22 1 21 1
M  V30 23 1 22 2
M  V30 24 1 23 2
M  V30 25 1 24 3
M  V30 26 1 25 3
M  V30 27 1 26 5
M  V30 28 1 27 5
M  V30 29 1 28 7
M  V30 30 1 29 9
M  V30 31 1 30 9
M  V30 32 1 31 10
M  V30 33 1 32 10
M  V30 34 1 33 10
M  V30 35 1 34 11
M  V30 36 1 35 11
M  V30 37 1 36 12
M  V30 38 1 37 12
M  V30 39 1 38 12
M  V30 40 1 39 13
M  V30 41 1 40 14
M  V30 42 1 41 16
M  V30 43 1 42 16
M  V30 44 1 15 43 CFG=1
M  V30 END BOND
M  V30 END CTAB
M  END
>  <i_epik_Tot_Q>  (1) 
1

>  <i_epik_Tot_abs_Q>  (1) 
1

>  <i_i_glide_confnum>  (1) 
31

>  <i_i_glide_lignum>  (1) 
47

>  <i_i_glide_posenum>  (1) 
261

>  <i_i_glide_rotatable_bonds>  (1) 
5

>  <i_lp_mmshare_version>  (1) 
72125

>  <i_m_source_file_index>  (1) 
29

>  <i_f3d_flags>  (1) 
0

>  <num_sample>  (1) 
100

>  <b_lp_Chiralities_Consistent>  (1) 
1

>  <r_epik_Charging_Adjusted_Penalty>  (1) 
0.16160378579191387

>  <r_epik_Ionization_Penalty>  (1) 
0.086651210493904285

>  <r_epik_Ionization_Penalty_Charging>  (1) 
0.086651186480528317

>  <r_epik_Ionization_Penalty_Neutral>  (1) 
2.4013375966173516e-08

>  <r_epik_State_Penalty>  (1) 
0.074952599311385565

>  <r_glide_ring_energy>  (1) 
0

>  <r_i_docking_score>  (1) 
-5.5031644302195541

>  <r_i_glide_ecoul>  (1) 
-4.0470732999290107

>  <r_i_glide_eff_state_penalty>  (1) 
0.074952599311385565

>  <r_i_glide_einternal>  (1) 
9.9088423540460902

>  <r_i_glide_emodel>  (1) 
-40.514208917897932

>  <r_i_glide_emodel_strain>  (1) 
1.4682814763289826

>  <r_i_glide_energy>  (1) 
-32.715063280157707

>  <r_i_glide_erotb>  (1) 
1.0307106156986021

>  <r_i_glide_esite>  (1) 
-0.033459682158938409

>  <r_i_glide_evdw>  (1) 
-28.667989980228697

>  <r_i_glide_gscore>  (1) 
-5.5781170295309401

>  <r_i_glide_gscore_strain>  (1) 
0

>  <r_i_glide_hbond>  (1) 
0

>  <r_i_glide_ligand_efficiency>  (1) 
-0.2896402331694502

>  <r_i_glide_ligand_efficiency_ln>  (1) 
-1.3951703801949833

>  <r_i_glide_ligand_efficiency_sa>  (1) 
-0.77287647572556961

>  <r_i_glide_lipo>  (1) 
-2.4178449229701959

>  <r_i_glide_metal>  (1) 
-0

>  <r_i_glide_rewards>  (1) 
-2.1170625460996213

>  <r_lp_Energy>  (1) 
45.398657999999998

>  <s_epik_cmdline>  (1) 
J2VwaWtfcHl0aG9uJywgJy1waHQnLCAnMS4wJywgJy1waCcsICc3LjQnLCAnLXRuJywgJzgnLCAnLW1hJywgJzUwMCcsICctaW1hZScsICc8aW5maWxlLm1hZT4nLCAnLW9tYWUnLCAnPG91dGZpbGUubWFlPic=

>  <s_epik_input>  (1) 
W0NIMl0xW0NIMl1bQ0gyXVtDSDJdW0NIXT1DMWMoW2NIXVtuSF1jMj1PKW5jMltDSDJdW0NIMl1OKFtDSDNdKVtDSDJdW0NIM10=

>  <s_glide_docking_method>  (1) 
confgen

>  <s_i_glide_gridfile>  (1) 
gpcr_drd2_6luq_protein_autoprepared_prepared

>  <s_lp_Force_Field>  (1) 
S-OPLS

>  <s_lp_Variant>  (1) 
DiffSBDD_28_num_sample_100-1

>  <s_m_source_file>  (1) 
generated__ligand_DiffSBDD_2026-05-06_prepared.sdf

>  <GenAI_Model>  (1) 
DiffSBDD

>  <Protein>  (1) 
generic_title2

$$$$
DiffSBDD_7_num_sample_100
     RDKit          3D

  0  0  0  0  0  0  0  0  0  0999 V3000
M  V30 BEGIN CTAB
M  V30 COUNTS 61 65 0 0 1
M  V30 BEGIN ATOM
M  V30 1 C 6.560364 4.905901 -11.094440 0 CFG=1
M  V30 2 C 7.970139 4.679691 -16.146434 0
M  V30 3 C 7.321054 5.196337 -17.289079 0
M  V30 4 O 5.395067 5.724948 -11.045820 0
M  V30 5 C 9.647449 6.721873 -9.684297 0 CFG=2
M  V30 6 C 11.434608 7.847453 -4.566171 0
M  V30 7 F 8.752824 3.877449 -18.646674 0
M  V30 8 C 11.426363 6.295386 -6.572910 0
M  V30 9 C 11.369230 8.584097 -7.822611 0 CFG=2
M  V30 10 C 7.770656 4.779160 -18.680202 0
M  V30 11 C 5.759613 5.246718 -12.350004 0 CFG=1
M  V30 12 C 13.288687 9.738260 -6.291352 0
M  V30 13 F 6.735820 4.250176 -19.334213 0
M  V30 14 C 8.972336 5.200417 -11.459497 0 CFG=1
M  V30 15 C 10.357210 7.115514 -11.009845 0
M  V30 16 N 7.742113 5.769427 -10.943180 0 CFG=2 CHG=1
M  V30 17 C 9.823820 6.226528 -12.144043 0
M  V30 18 C 12.410331 8.569437 -8.952459 0
M  V30 19 O 13.361393 7.769396 -8.853253 0
M  V30 20 C 11.794461 9.447491 -6.587117 0 CFG=2
M  V30 21 F 8.198934 5.855323 -19.339585 0
M  V30 22 O 12.226982 9.365524 -9.891795 0 CHG=-1
M  V30 23 C 6.252677 6.105608 -17.139326 0
M  V30 24 C 5.832808 6.494705 -15.853342 0
M  V30 25 C 6.023310 6.399338 -13.322252 0
M  V30 26 O 11.035258 10.175692 -4.433438 0
M  V30 27 C 6.476914 5.973316 -14.709688 0
M  V30 28 C 10.691492 7.214221 -7.535528 0 CFG=1
M  V30 29 C 11.586048 6.629389 -5.104449 0
M  V30 30 C 7.548439 5.065857 -14.860325 0
M  V30 31 O 10.598973 6.381723 -8.694401 0
M  V30 32 C 8.820184 5.487879 -10.008251 0 CFG=2
M  V30 33 C 11.000490 9.088610 -5.322689 0 CFG=2
M  V30 34 H 6.498735 3.969608 -10.544584 0
M  V30 35 H 8.793360 3.988828 -16.256312 0
M  V30 36 H 9.035105 7.546866 -9.339586 0
M  V30 37 H 11.599452 7.971696 -3.505069 0
M  V30 38 H 12.418832 6.102102 -6.958447 0
M  V30 39 H 10.884716 5.369317 -6.602539 0
M  V30 40 H 10.535308 9.121909 -8.269702 0
M  V30 41 H 5.081169 4.484944 -12.728147 0
M  V30 42 H 13.603590 9.374765 -5.314664 0
M  V30 43 H 13.998093 9.369462 -7.024703 0
M  V30 44 H 13.433609 10.813380 -6.291666 0
M  V30 45 H 8.855282 4.196893 -11.862328 0
M  V30 46 H 10.201391 8.171498 -11.232459 0
M  V30 47 H 11.433730 6.969327 -10.936193 0
M  V30 48 H 9.229249 6.792237 -12.861274 0
M  V30 49 H 10.638333 5.740645 -12.682829 0
M  V30 50 H 11.436066 10.438244 -6.853190 0
M  V30 51 H 5.757273 6.506120 -18.012767 0
M  V30 52 H 5.017843 7.194785 -15.744666 0
M  V30 53 H 5.100994 6.972788 -13.417963 0
M  V30 54 H 6.757454 7.095057 -12.917626 0
M  V30 55 H 10.911005 10.967883 -4.933338 0
M  V30 56 H 9.678367 7.363051 -7.157195 0
M  V30 57 H 11.881178 5.810259 -4.466018 0
M  V30 58 H 8.050141 4.667914 -13.993156 0
M  V30 59 H 8.516332 4.770828 -9.249745 0
M  V30 60 H 9.950714 8.962936 -5.589402 0
M  V30 61 H 7.580289 6.770809 -10.912467 0
M  V30 END ATOM
M  V30 BEGIN BOND
M  V30 1 2 3 2
M  V30 2 1 4 1
M  V30 3 1 10 3
M  V30 4 1 10 7
M  V30 5 1 11 1
M  V30 6 1 11 4
M  V30 7 1 13 10
M  V30 8 1 15 5
M  V30 9 1 16 1
M  V30 10 1 16 14
M  V30 11 1 17 14
M  V30 12 1 17 15
M  V30 13 1 18 9
M  V30 14 2 19 18
M  V30 15 1 20 9
M  V30 16 1 20 12
M  V30 17 1 21 10
M  V30 18 1 22 18
M  V30 19 1 23 3
M  V30 20 2 24 23
M  V30 21 1 25 11
M  V30 22 1 27 24
M  V30 23 1 27 25
M  V30 24 1 28 8
M  V30 25 1 28 9
M  V30 26 2 29 6
M  V30 27 1 29 8
M  V30 28 1 30 2
M  V30 29 2 30 27
M  V30 30 1 31 5
M  V30 31 1 31 28
M  V30 32 1 32 5
M  V30 33 1 32 14
M  V30 34 1 32 16
M  V30 35 1 33 6
M  V30 36 1 33 20
M  V30 37 1 33 26
M  V30 38 1 1 34 CFG=1
M  V30 39 1 35 2
M  V30 40 1 5 36 CFG=1
M  V30 41 1 37 6
M  V30 42 1 38 8
M  V30 43 1 39 8
M  V30 44 1 9 40 CFG=3
M  V30 45 1 11 41 CFG=3
M  V30 46 1 42 12
M  V30 47 1 43 12
M  V30 48 1 44 12
M  V30 49 1 14 45 CFG=1
M  V30 50 1 46 15
M  V30 51 1 47 15
M  V30 52 1 48 17
M  V30 53 1 49 17
M  V30 54 1 20 50 CFG=3
M  V30 55 1 51 23
M  V30 56 1 52 24
M  V30 57 1 53 25
M  V30 58 1 54 25
M  V30 59 1 55 26
M  V30 60 1 28 56 CFG=1
M  V30 61 1 57 29
M  V30 62 1 58 30
M  V30 63 1 32 59 CFG=1
M  V30 64 1 33 60 CFG=3
M  V30 65 1 16 61 CFG=3
M  V30 END BOND
M  V30 END CTAB
M  END
>  <i_epik_Tot_Q>  (1) 
0

>  <i_epik_Tot_abs_Q>  (1) 
2

>  <i_i_glide_confnum>  (1) 
79

>  <i_i_glide_lignum>  (1) 
13

>  <i_i_glide_posenum>  (1) 
256

>  <i_i_glide_rotatable_bonds>  (1) 
8

>  <i_lp_mmshare_version>  (1) 
72125

>  <i_m_source_file_index>  (1) 
8

>  <i_f3d_flags>  (1) 
2

>  <num_sample>  (1) 
100

>  <b_lp_Chiralities_Consistent>  (1) 
0

>  <r_epik_Charging_Adjusted_Penalty>  (1) 
0.97984479296791849

>  <r_epik_Ionization_Penalty>  (1) 
0.49008068678085143

>  <r_epik_Ionization_Penalty_Charging>  (1) 
0.49008059146589078

>  <r_epik_Ionization_Penalty_Neutral>  (1) 
9.5314960655475233e-08

>  <r_epik_State_Penalty>  (1) 
0.48976420150202771

>  <r_glide_ring_energy>  (1) 
0.19782434185497597

>  <r_i_docking_score>  (1) 
-5.4982050354048528

>  <r_i_glide_ecoul>  (1) 
-5.8959070232082071

>  <r_i_glide_eff_state_penalty>  (1) 
0.48976420150202771

>  <r_i_glide_einternal>  (1) 
3.989750621987751

>  <r_i_glide_emodel>  (1) 
-36.390950693576805

>  <r_i_glide_emodel_strain>  (1) 
7.064583559713796

>  <r_i_glide_energy>  (1) 
-34.704395696434908

>  <r_i_glide_erotb>  (1) 
0.46174917305607022

>  <r_i_glide_esite>  (1) 
-0.15210230721169882

>  <r_i_glide_evdw>  (1) 
-28.808488673226698

>  <r_i_glide_gscore>  (1) 
-5.9879692369068804

>  <r_i_glide_gscore_strain>  (1) 
0.76614588992844901

>  <r_i_glide_hbond>  (1) 
-0.11431200894355242

>  <r_i_glide_ligand_efficiency>  (1) 
-0.16661227380014706

>  <r_i_glide_ligand_efficiency_ln>  (1) 
-1.2227723316919503

>  <r_i_glide_ligand_efficiency_sa>  (1) 
-0.53441458801263597

>  <r_i_glide_lipo>  (1) 
-2.9083143835490111

>  <r_i_glide_metal>  (1) 
-0

>  <r_i_glide_rewards>  (1) 
-1.7163251130445696

>  <r_lp_Energy>  (1) 
40.093779999999995

>  <s_epik_Chemistry_Notes>  (1) 
This compound contains an acetal/aminal-like group ( X-CH(R)-Y where X, Y are N, S, or O) that may be acid/base labile, releasing an aldehyde.

>  <s_epik_cmdline>  (1) 
J2VwaWtfcHl0aG9uJywgJy1waHQnLCAnMS4wJywgJy1waCcsICc3LjQnLCAnLXRuJywgJzgnLCAnLW1hJywgJzUwMCcsICctaW1hZScsICc8aW5maWxlLm1hZT4nLCAnLW9tYWUnLCAnPG91dGZpbGUubWFlPic=

>  <s_epik_input>  (1) 
RkMoRikoRiljMVtjSF1bY0hdYyhbY0hdW2NIXTEpW0NIMl1bQ0BASF0yT1tDSF0yTjNbQ0BASF0oW0NASF0zNClbQ0BIXShbQ0gyXVtDSDJdNClPW0NASF01W0NIMl1bQ0hdPVtDSF1bQ0BASF0oW09IXSlbQ0BASF0oW0NIM10pW0NASF01Qyg9TylbT0hd

>  <s_glide_docking_method>  (1) 
confgen

>  <s_i_glide_gridfile>  (1) 
gpcr_drd2_6luq_protein_autoprepared_prepared

>  <s_lp_Force_Field>  (1) 
S-OPLS

>  <s_lp_Variant>  (1) 
DiffSBDD_7_num_sample_100-2

>  <s_m_source_file>  (1) 
generated__ligand_DiffSBDD_2026-05-06_prepared.sdf

>  <GenAI_Model>  (1) 
DiffSBDD

>  <Protein>  (1) 
generic_title2

$$$$
DiffSBDD_76_num_sample_100
     RDKit          3D

  0  0  0  0  0  0  0  0  0  0999 V3000
M  V30 BEGIN CTAB
M  V30 COUNTS 78 81 0 0 1
M  V30 BEGIN ATOM
M  V30 1 C 9.699677 5.982594 -11.880894 0
M  V30 2 C 11.412732 8.274879 -7.609985 0
M  V30 3 C 7.039183 4.522737 -12.464090 0
M  V30 4 N 8.657018 5.689504 -10.865857 0 CFG=1 CHG=1
M  V30 5 C 11.818088 8.569321 -6.277032 0
M  V30 6 C 7.800187 -1.818004 -20.123177 0
M  V30 7 C 7.834838 -2.738743 -19.153626 0
M  V30 8 C 7.069166 -0.446607 -16.397457 0 CFG=1
M  V30 9 C 10.667373 7.641564 -10.213099 0
M  V30 10 N 7.033695 0.987059 -14.251456 0 CFG=2 CHG=1
M  V30 11 C 5.732063 0.445255 -13.766289 0
M  V30 12 C 10.161211 6.846714 -9.172548 0
M  V30 13 C 8.199843 -2.415460 -17.712310 0
M  V30 14 C 10.153062 6.334588 -6.764180 0
M  V30 15 C 11.510346 8.707423 -9.891676 0
M  V30 16 C 6.634784 2.083356 -16.516216 0
M  V30 17 C 10.317852 7.353037 -11.657218 0
M  V30 18 C 7.549793 2.197500 -13.526554 0
M  V30 19 N 11.834880 9.038319 -8.639809 0
M  V30 20 O 6.149579 -0.230689 -12.602025 0
M  V30 21 O 12.526059 8.967174 -3.414380 0
M  V30 22 C 8.224451 -0.885894 -17.360709 0 CFG=1
M  V30 23 C 11.434820 7.709073 -5.199057 0
M  V30 24 C 6.479091 3.172836 -12.958494 0
M  V30 25 N 5.214896 -2.099516 -17.091679 0 CHG=1
M  V30 26 C 7.305202 0.955389 -15.739251 0 CFG=2
M  V30 27 O 12.615371 9.668378 -6.044948 0 CHG=-1
M  V30 28 C 7.920870 4.436927 -11.190126 0
M  V30 29 C 10.564388 7.145239 -7.837637 0
M  V30 30 C 9.223522 5.669626 -9.482507 0
M  V30 31 C 5.646953 -0.686956 -17.029192 0
M  V30 32 C 8.094053 -0.434895 -19.852424 0
M  V30 33 C 8.304716 0.007822 -18.602750 0
M  V30 34 C 11.932243 7.953705 -3.780654 0
M  V30 35 C 10.599964 6.600006 -5.460723 0
M  V30 36 C 11.676691 6.825796 -2.774861 0
M  V30 37 H 10.465527 5.206288 -11.884444 0
M  V30 38 H 9.306607 5.990008 -12.893395 0
M  V30 39 H 7.562717 4.967898 -13.306215 0
M  V30 40 H 6.205292 5.194947 -12.255517 0
M  V30 41 H 7.553911 -2.119796 -21.131249 0
M  V30 42 H 7.617682 -3.772840 -19.383737 0
M  V30 43 H 7.157409 -1.030740 -15.506436 0
M  V30 44 H 5.294788 -0.310448 -14.407470 0
M  V30 45 H 4.958598 1.185154 -13.568068 0
M  V30 46 H 9.178285 -2.839511 -17.491606 0
M  V30 47 H 7.531236 -2.992142 -17.091650 0
M  V30 48 H 9.515130 5.483501 -6.940180 0
M  V30 49 H 11.927966 9.327021 -10.666320 0
M  V30 50 H 7.125159 2.286928 -17.464616 0
M  V30 51 H 5.625218 1.769302 -16.760449 0
M  V30 52 H 6.634838 3.023463 -15.967277 0
M  V30 53 H 9.657824 8.142341 -12.020675 0
M  V30 54 H 11.230109 7.369324 -12.254299 0
M  V30 55 H 8.160542 1.830941 -12.700918 0
M  V30 56 H 8.234957 2.747484 -14.171725 0
M  V30 57 H 5.771211 -1.109257 -12.633433 0
M  V30 58 H 9.161462 -0.724897 -16.827057 0
M  V30 59 H 5.745952 3.392484 -13.735066 0
M  V30 60 H 5.932475 2.705195 -12.139685 0
M  V30 61 H 4.354916 -2.167421 -17.617864 0
M  V30 62 H 5.924776 -2.642468 -17.564754 0
M  V30 63 H 8.376523 1.150845 -15.796862 0
M  V30 64 H 7.281905 4.173860 -10.345170 0
M  V30 65 H 8.656436 3.638159 -11.289554 0
M  V30 66 H 8.377662 5.694354 -8.794225 0
M  V30 67 H 9.766811 4.739438 -9.310789 0
M  V30 68 H 4.854360 -0.179129 -16.483110 0
M  V30 69 H 5.613545 -0.279967 -18.040267 0
M  V30 70 H 8.150844 0.263145 -20.675486 0
M  V30 71 H 8.535183 1.048235 -18.439738 0
M  V30 72 H 10.294584 5.946943 -4.658395 0
M  V30 73 H 10.626660 6.569295 -2.670789 0
M  V30 74 H 12.218425 5.930429 -3.078658 0
M  V30 75 H 12.044120 7.121332 -1.793126 0
M  V30 76 H 5.055313 -2.494494 -16.171742 0
M  V30 77 H 7.995811 6.460155 -10.858953 0
M  V30 78 H 7.662745 0.268401 -13.921976 0
M  V30 END ATOM
M  V30 BEGIN BOND
M  V30 1 1 4 1
M  V30 2 2 5 2
M  V30 3 2 7 6
M  V30 4 1 11 10
M  V30 5 2 12 9
M  V30 6 1 13 7
M  V30 7 1 15 9
M  V30 8 1 17 1
M  V30 9 1 17 9
M  V30 10 1 18 10
M  V30 11 1 19 2
M  V30 12 2 19 15
M  V30 13 1 20 11
M  V30 14 1 22 8
M  V30 15 1 22 13
M  V30 16 1 23 5
M  V30 17 1 24 3
M  V30 18 1 24 18
M  V30 19 1 26 8
M  V30 20 1 26 10
M  V30 21 1 26 16
M  V30 22 1 27 5
M  V30 23 1 28 3
M  V30 24 1 28 4
M  V30 25 1 29 2
M  V30 26 1 29 12
M  V30 27 2 29 14
M  V30 28 1 30 4
M  V30 29 1 30 12
M  V30 30 1 31 8
M  V30 31 1 31 25
M  V30 32 1 32 6
M  V30 33 1 33 22
M  V30 34 2 33 32
M  V30 35 2 34 21
M  V30 36 1 34 23
M  V30 37 1 35 14
M  V30 38 2 35 23
M  V30 39 1 36 34
M  V30 40 1 37 1
M  V30 41 1 38 1
M  V30 42 1 39 3
M  V30 43 1 40 3
M  V30 44 1 41 6
M  V30 45 1 42 7
M  V30 46 1 8 43 CFG=1
M  V30 47 1 44 11
M  V30 48 1 45 11
M  V30 49 1 46 13
M  V30 50 1 47 13
M  V30 51 1 48 14
M  V30 52 1 49 15
M  V30 53 1 50 16
M  V30 54 1 51 16
M  V30 55 1 52 16
M  V30 56 1 53 17
M  V30 57 1 54 17
M  V30 58 1 55 18
M  V30 59 1 56 18
M  V30 60 1 57 20
M  V30 61 1 22 58 CFG=1
M  V30 62 1 59 24
M  V30 63 1 60 24
M  V30 64 1 61 25
M  V30 65 1 62 25
M  V30 66 1 26 63 CFG=1
M  V30 67 1 64 28
M  V30 68 1 65 28
M  V30 69 1 66 30
M  V30 70 1 67 30
M  V30 71 1 68 31
M  V30 72 1 69 31
M  V30 73 1 70 32
M  V30 74 1 71 33
M  V30 75 1 72 35
M  V30 76 1 73 36
M  V30 77 1 74 36
M  V30 78 1 75 36
M  V30 79 1 76 25
M  V30 80 1 4 77 CFG=1
M  V30 81 1 10 78 CFG=1
M  V30 END BOND
M  V30 END CTAB
M  END
>  <i_epik_Tot_Q>  (1) 
2

>  <i_epik_Tot_abs_Q>  (1) 
4

>  <i_i_glide_confnum>  (1) 
1269

>  <i_i_glide_lignum>  (1) 
156

>  <i_i_glide_posenum>  (1) 
390

>  <i_i_glide_rotatable_bonds>  (1) 
12

>  <i_lp_mmshare_version>  (1) 
72125

>  <i_m_source_file_index>  (1) 
77

>  <i_f3d_flags>  (1) 
0

>  <num_sample>  (1) 
100

>  <b_lp_Chiralities_Consistent>  (1) 
1

>  <r_epik_Charging_Adjusted_Penalty>  (1) 
2.7385366295040585

>  <r_epik_Ionization_Penalty>  (1) 
1.4403839023663505

>  <r_epik_Ionization_Penalty_Charging>  (1) 
1.4088334024277234

>  <r_epik_Ionization_Penalty_Neutral>  (1) 
0.03155049993862722

>  <r_epik_State_Penalty>  (1) 
1.3297032270763354

>  <r_glide_ring_energy>  (1) 
0.68305203791256597

>  <r_i_docking_score>  (1) 
-5.4964554038574178

>  <r_i_glide_ecoul>  (1) 
-12.116781956493488

>  <r_i_glide_eff_state_penalty>  (1) 
1.3297032270763354

>  <r_i_glide_einternal>  (1) 
15.512914817866772

>  <r_i_glide_emodel>  (1) 
-66.291715480201532

>  <r_i_glide_emodel_strain>  (1) 
2.3733703465250358

>  <r_i_glide_energy>  (1) 
-47.329518127245237

>  <r_i_glide_erotb>  (1) 
0.66625950385389887

>  <r_i_glide_esite>  (1) 
-0.10370479541498223

>  <r_i_glide_evdw>  (1) 
-35.212736170751747

>  <r_i_glide_gscore>  (1) 
-6.8261586309337527

>  <r_i_glide_gscore_strain>  (1) 
0

>  <r_i_glide_hbond>  (1) 
-0.34342108369372915

>  <r_i_glide_ligand_efficiency>  (1) 
-0.15267931677381716

>  <r_i_glide_ligand_efficiency_ln>  (1) 
-1.1991780720576268

>  <r_i_glide_ligand_efficiency_sa>  (1) 
-0.50413599639808138

>  <r_i_glide_lipo>  (1) 
-2.2392591231747172

>  <r_i_glide_metal>  (1) 
-0

>  <r_i_glide_rewards>  (1) 
-1.2278790304926117

>  <r_lp_Energy>  (1) 
77.340654000000001

>  <r_lp_tautomer_probability>  (1) 
0.99995000000000001

>  <s_epik_Chemistry_Notes>  (1) 
This compound contains an acetal/aminal-like group ( X-CH(R)-Y where X, Y are N, S, or O) that may be acid/base labile, releasing an aldehyde.

>  <s_epik_cmdline>  (1) 
J2VwaWtfcHl0aG9uJywgJy1waHQnLCAnMS4wJywgJy1waCcsICc3LjQnLCAnLXRuJywgJzgnLCAnLW1hJywgJzUwMCcsICctaW1hZScsICc8aW5maWxlLm1hZT4nLCAnLW9tYWUnLCAnPG91dGZpbGUubWFlPic=

>  <s_epik_input>  (1) 
Tz1DKFtDSDNdKWMoYzFbT0hdKVtjSF1bY0hdYyhjMTIpYzNjKFtjSF1uMilbQ0gyXVtDSDJdTihbQ0gyXTMpW0NIMl1bQ0gyXVtDSDJdW0NIMl1OKFtDSDJdW09IXSlbQ0BIXShbQ0gzXSlbQ0BASF0oW0NIMl1bTkgyXSlbQ0BIXTRbQ0gyXVtDSF09W0NIXVtDSF09W0NIXTQ=

>  <s_glide_docking_method>  (1) 
confgen

>  <s_i_glide_gridfile>  (1) 
gpcr_drd2_6luq_protein_autoprepared_prepared

>  <s_lp_Force_Field>  (1) 
S-OPLS

>  <s_lp_Variant>  (1) 
DiffSBDD_76_num_sample_100-5

>  <s_m_source_file>  (1) 
generated__ligand_DiffSBDD_2026-05-06_prepared.sdf

>  <GenAI_Model>  (1) 
DiffSBDD

>  <Protein>  (1) 
generic_title2

$$$$
DiffSBDD_44_num_sample_100
     RDKit          3D

  0  0  0  0  0  0  0  0  0  0999 V3000
M  V30 BEGIN CTAB
M  V30 COUNTS 55 57 0 0 1
M  V30 BEGIN ATOM
M  V30 1 C 5.798447 4.832455 -13.590911 0
M  V30 2 C 7.133436 5.098557 -14.327714 0 CFG=1
M  V30 3 C 12.132837 9.060261 -4.921295 0
M  V30 4 C 12.110090 7.110698 -2.897054 0
M  V30 5 C 11.434843 6.863336 -4.105066 0
M  V30 6 C 9.556156 7.468870 -11.133328 0
M  V30 7 C 7.434841 3.954906 -15.279213 0
M  V30 8 N 7.059365 6.215061 -15.282678 0
M  V30 9 C 10.549265 7.723641 -9.983539 0
M  V30 10 C 10.789941 8.294039 -7.489963 0
M  V30 11 O 11.514278 9.268526 -7.655202 0
M  V30 12 C 12.796214 8.308791 -2.706980 0
M  V30 13 N 12.095636 6.169301 -1.891667 0
M  V30 14 C 7.435860 4.329925 -16.733588 0
M  V30 15 N 10.718097 7.560484 -6.373758 0
M  V30 16 C 8.915079 6.074028 -11.083093 0
M  V30 17 O 9.434845 5.008888 -13.617595 0
M  V30 18 C 9.434027 6.444451 -7.965957 0
M  V30 19 C 6.736142 5.700089 -16.622296 0
M  V30 20 N 7.953609 5.859538 -12.144350 0
M  V30 21 C 6.361079 7.433189 -14.895894 0
M  V30 22 C 9.881704 7.800362 -8.592865 0 CFG=2
M  V30 23 C 9.892429 6.387248 -6.492325 0
M  V30 24 C 11.434838 7.837953 -5.132634 0
M  V30 25 C 8.283687 5.320284 -13.325582 0
M  V30 26 C 12.814191 9.272178 -3.714898 0
M  V30 27 O 7.645932 2.804606 -14.893346 0
M  V30 28 H 5.892492 4.008919 -12.880722 0
M  V30 29 H 5.434842 5.699681 -13.039240 0
M  V30 30 H 5.027546 4.560396 -14.291669 0
M  V30 31 H 12.156381 9.829667 -5.664186 0
M  V30 32 H 10.909752 5.930182 -4.238078 0
M  V30 33 H 8.777567 8.233332 -11.119730 0
M  V30 34 H 10.079740 7.583939 -12.083271 0
M  V30 35 H 11.053576 8.668742 -10.187341 0
M  V30 36 H 11.334819 6.969443 -9.985587 0
M  V30 37 H 13.320182 8.492696 -1.779860 0
M  V30 38 H 12.633988 6.293857 -1.048120 0
M  V30 39 H 11.644091 5.269125 -2.016147 0
M  V30 40 H 8.463914 4.426372 -17.082946 0
M  V30 41 H 6.897420 3.616649 -17.357292 0
M  V30 42 H 9.674406 5.289838 -11.063208 0
M  V30 43 H 8.319506 5.956860 -10.184352 0
M  V30 44 H 8.352310 6.318639 -8.016003 0
M  V30 45 H 9.882208 5.605951 -8.500545 0
M  V30 46 H 7.071547 6.390212 -17.397296 0
M  V30 47 H 5.656113 5.586926 -16.727630 0
M  V30 48 H 6.990818 6.103295 -11.964086 0
M  V30 49 H 6.570114 8.231050 -15.609693 0
M  V30 50 H 5.282126 7.285986 -14.863039 0
M  V30 51 H 6.698197 7.769278 -13.915882 0
M  V30 52 H 9.034851 8.487450 -8.627518 0
M  V30 53 H 10.497388 5.499998 -6.343835 0
M  V30 54 H 9.047631 6.401192 -5.805487 0
M  V30 55 H 13.356956 10.169322 -3.562070 0
M  V30 END ATOM
M  V30 BEGIN BOND
M  V30 1 1 2 1 CFG=1
M  V30 2 2 5 4
M  V30 3 1 7 2
M  V30 4 1 8 2
M  V30 5 1 9 6
M  V30 6 2 11 10
M  V30 7 1 12 4
M  V30 8 1 13 4
M  V30 9 1 14 7
M  V30 10 1 15 10
M  V30 11 1 16 6
M  V30 12 1 19 8
M  V30 13 1 19 14
M  V30 14 1 20 16
M  V30 15 1 21 8
M  V30 16 1 22 9
M  V30 17 1 22 10
M  V30 18 1 22 18
M  V30 19 1 23 15
M  V30 20 1 23 18
M  V30 21 2 24 3
M  V30 22 1 24 5
M  V30 23 1 24 15
M  V30 24 1 25 2
M  V30 25 2 25 17
M  V30 26 1 25 20
M  V30 27 1 26 3
M  V30 28 2 26 12
M  V30 29 2 27 7
M  V30 30 1 28 1
M  V30 31 1 29 1
M  V30 32 1 30 1
M  V30 33 1 31 3
M  V30 34 1 32 5
M  V30 35 1 33 6
M  V30 36 1 34 6
M  V30 37 1 35 9
M  V30 38 1 36 9
M  V30 39 1 37 12
M  V30 40 1 38 13
M  V30 41 1 39 13
M  V30 42 1 40 14
M  V30 43 1 41 14
M  V30 44 1 42 16
M  V30 45 1 43 16
M  V30 46 1 44 18
M  V30 47 1 45 18
M  V30 48 1 46 19
M  V30 49 1 47 19
M  V30 50 1 48 20
M  V30 51 1 49 21
M  V30 52 1 50 21
M  V30 53 1 51 21
M  V30 54 1 22 52 CFG=3
M  V30 55 1 53 23
M  V30 56 1 54 23
M  V30 57 1 55 26
M  V30 END BOND
M  V30 END CTAB
M  END
>  <i_epik_Tot_Q>  (1) 
0

>  <i_epik_Tot_abs_Q>  (1) 
0

>  <i_i_glide_confnum>  (1) 
81

>  <i_i_glide_lignum>  (1) 
77

>  <i_i_glide_posenum>  (1) 
169

>  <i_i_glide_rotatable_bonds>  (1) 
7

>  <i_lp_mmshare_version>  (1) 
72125

>  <i_m_source_file_index>  (1) 
45

>  <i_f3d_flags>  (1) 
0

>  <num_sample>  (1) 
100

>  <b_lp_Chiralities_Consistent>  (1) 
1

>  <r_epik_Charging_Adjusted_Penalty>  (1) 
0.38370982414574223

>  <r_epik_Ionization_Penalty>  (1) 
0.3841777034394574

>  <r_epik_Ionization_Penalty_Charging>  (1) 
0

>  <r_epik_Ionization_Penalty_Neutral>  (1) 
0.3841777034394574

>  <r_epik_State_Penalty>  (1) 
0.38370982414574223

>  <r_glide_ring_energy>  (1) 
0

>  <r_i_docking_score>  (1) 
-5.4940711424629383

>  <r_i_glide_ecoul>  (1) 
-2.5167124466411703

>  <r_i_glide_eff_state_penalty>  (1) 
0.38370982414574223

>  <r_i_glide_einternal>  (1) 
3.0847661949521559

>  <r_i_glide_emodel>  (1) 
-49.031123050097584

>  <r_i_glide_emodel_strain>  (1) 
0.044842170316442775

>  <r_i_glide_energy>  (1) 
-37.492198603067223

>  <r_i_glide_erotb>  (1) 
0.97453214498294238

>  <r_i_glide_esite>  (1) 
-0.033903311657221706

>  <r_i_glide_evdw>  (1) 
-34.975486156426051

>  <r_i_glide_gscore>  (1) 
-5.8777809666086807

>  <r_i_glide_gscore_strain>  (1) 
0

>  <r_i_glide_hbond>  (1) 
0

>  <r_i_glide_ligand_efficiency>  (1) 
-0.20348411638751623

>  <r_i_glide_ligand_efficiency_ln>  (1) 
-1.2789291851236237

>  <r_i_glide_ligand_efficiency_sa>  (1) 
-0.61045234916254887

>  <r_i_glide_lipo>  (1) 
-2.36703665737187

>  <r_i_glide_metal>  (1) 
-0

>  <r_i_glide_rewards>  (1) 
-2.3250919677450512

>  <r_lp_Energy>  (1) 
23.583355999999998

>  <r_lp_tautomer_probability>  (1) 
0.99995000000000001

>  <s_epik_cmdline>  (1) 
J2VwaWtfcHl0aG9uJywgJy1waHQnLCAnMS4wJywgJy1waCcsICc3LjQnLCAnLXRuJywgJzgnLCAnLW1hJywgJzUwMCcsICctaW1hZScsICc8aW5maWxlLm1hZT4nLCAnLW9tYWUnLCAnPG91dGZpbGUubWFlPic=

>  <s_epik_input>  (1) 
W0NIM11OMVtDSDJdW0NIMl1DKD1PKVtDQEBdMShbQ0gzXSlDKD1PKVtOSF1bQ0gyXVtDSDJdW0NIMl1bQ0BASF0yW0NIMl1bQ0gyXU4oQzI9TyljKFtjSF1bY0hdW2NIXTMpW2NIXWMzW05IMl0=

>  <s_glide_docking_method>  (1) 
confgen

>  <s_i_glide_gridfile>  (1) 
gpcr_drd2_6luq_protein_autoprepared_prepared

>  <s_lp_Force_Field>  (1) 
S-OPLS

>  <s_lp_Variant>  (1) 
DiffSBDD_44_num_sample_100-2

>  <s_m_source_file>  (1) 
generated__ligand_DiffSBDD_2026-05-06_prepared.sdf

>  <GenAI_Model>  (1) 
DiffSBDD

>  <Protein>  (1) 
generic_title2

$$$$
DiffSBDD_43_num_sample_100
     RDKit          3D

  0  0  0  0  0  0  0  0  0  0999 V3000
M  V30 BEGIN CTAB
M  V30 COUNTS 37 39 0 0 1
M  V30 BEGIN ATOM
M  V30 1 C 9.148466 6.103569 -10.616568 0
M  V30 2 N 11.866656 8.238875 -2.969729 0
M  V30 3 C 11.034601 6.527518 -4.431933 0
M  V30 4 C 11.703177 8.898333 -7.228918 0
M  V30 5 N 11.955932 8.762123 -4.291881 0
M  V30 6 C 7.460962 4.778261 -9.521294 0
M  V30 7 C 12.810989 8.714110 -1.972953 0
M  V30 8 C 10.239065 6.872328 -8.561676 0
M  V30 9 C 8.164961 4.962260 -10.878323 0
M  V30 10 F 11.034026 6.306516 -2.035477 0
M  V30 11 C 10.428233 6.810613 -7.155631 0
M  V30 12 C 11.715989 6.776949 -3.076877 0 CFG=2
M  V30 13 N 9.504761 5.854163 -9.235022 0
M  V30 14 N 11.376442 7.772656 -5.082008 0
M  V30 15 C 11.166116 7.826453 -6.485002 0
M  V30 16 C 10.804637 7.949346 -9.289412 0
M  V30 17 C 8.508387 5.150151 -8.450459 0
M  V30 18 C 11.527377 8.953135 -8.623696 0
M  V30 19 H 8.644815 7.066613 -10.716022 0
M  V30 20 H 10.004751 6.061631 -11.290318 0
M  V30 21 H 9.955453 6.410188 -4.336520 0
M  V30 22 H 11.467170 5.663722 -4.932721 0
M  V30 23 H 12.264056 9.674567 -6.729908 0
M  V30 24 H 11.390543 9.607251 -4.350699 0
M  V30 25 H 6.634841 5.486850 -9.491683 0
M  V30 26 H 7.034742 3.785909 -9.380312 0
M  V30 27 H 12.654879 8.190221 -1.032158 0
M  V30 28 H 13.834837 8.559768 -2.291802 0
M  V30 29 H 12.634654 9.769322 -1.801649 0
M  V30 30 H 7.472462 5.180086 -11.691742 0
M  V30 31 H 8.711896 4.053670 -11.134739 0
M  V30 32 H 10.011387 5.988302 -6.598314 0
M  V30 33 H 12.699623 6.313440 -3.059878 0
M  V30 34 H 10.681806 8.010072 -10.358767 0
M  V30 35 H 8.950026 4.264429 -7.993992 0
M  V30 36 H 8.053300 5.769092 -7.675421 0
M  V30 37 H 11.950298 9.769892 -9.187296 0
M  V30 END ATOM
M  V30 BEGIN BOND
M  V30 1 1 5 2
M  V30 2 1 7 2
M  V30 3 1 9 1
M  V30 4 1 9 6
M  V30 5 2 11 8
M  V30 6 1 12 2
M  V30 7 1 12 3
M  V30 8 1 12 10
M  V30 9 1 13 1
M  V30 10 1 13 8
M  V30 11 1 14 3
M  V30 12 1 14 5
M  V30 13 2 15 4
M  V30 14 1 15 11
M  V30 15 1 15 14
M  V30 16 1 16 8
M  V30 17 1 17 6
M  V30 18 1 17 13
M  V30 19 1 18 4
M  V30 20 2 18 16
M  V30 21 1 19 1
M  V30 22 1 20 1
M  V30 23 1 21 3
M  V30 24 1 22 3
M  V30 25 1 23 4
M  V30 26 1 24 5
M  V30 27 1 25 6
M  V30 28 1 26 6
M  V30 29 1 27 7
M  V30 30 1 28 7
M  V30 31 1 29 7
M  V30 32 1 30 9
M  V30 33 1 31 9
M  V30 34 1 32 11
M  V30 35 1 12 33 CFG=3
M  V30 36 1 34 16
M  V30 37 1 35 17
M  V30 38 1 36 17
M  V30 39 1 37 18
M  V30 END BOND
M  V30 END CTAB
M  END
>  <i_epik_Tot_Q>  (1) 
0

>  <i_epik_Tot_abs_Q>  (1) 
0

>  <i_i_glide_confnum>  (1) 
8

>  <i_i_glide_lignum>  (1) 
75

>  <i_i_glide_posenum>  (1) 
275

>  <i_i_glide_rotatable_bonds>  (1) 
2

>  <i_lp_mmshare_version>  (1) 
72125

>  <i_m_source_file_index>  (1) 
44

>  <i_f3d_flags>  (1) 
0

>  <num_sample>  (1) 
100

>  <b_lp_Chiralities_Consistent>  (1) 
1

>  <r_epik_Charging_Adjusted_Penalty>  (1) 
0.0083505281845598599

>  <r_epik_Ionization_Penalty>  (1) 
0.0096858193437649089

>  <r_epik_Ionization_Penalty_Charging>  (1) 
0

>  <r_epik_Ionization_Penalty_Neutral>  (1) 
0.0096858193437649089

>  <r_epik_State_Penalty>  (1) 
0.0083505281845598599

>  <r_glide_ring_energy>  (1) 
0.002520034235707866

>  <r_i_docking_score>  (1) 
-5.4909458518135299

>  <r_i_glide_ecoul>  (1) 
-1.0108062700894642

>  <r_i_glide_eff_state_penalty>  (1) 
0.0083505281845598599

>  <r_i_glide_einternal>  (1) 
1.1729464916342103

>  <r_i_glide_emodel>  (1) 
-36.603902219724553

>  <r_i_glide_emodel_strain>  (1) 
0.047563037931013241

>  <r_i_glide_energy>  (1) 
-28.98960339308125

>  <r_i_glide_erotb>  (1) 
0.55876719090136395

>  <r_i_glide_esite>  (1) 
-0.062774910955524885

>  <r_i_glide_evdw>  (1) 
-27.978797122991786

>  <r_i_glide_gscore>  (1) 
-5.4992963799980901

>  <r_i_glide_gscore_strain>  (1) 
0

>  <r_i_glide_hbond>  (1) 
0

>  <r_i_glide_ligand_efficiency>  (1) 
-0.30505254732297388

>  <r_i_glide_ligand_efficiency_ln>  (1) 
-1.4114193176188705

>  <r_i_glide_ligand_efficiency_sa>  (1) 
-0.799463838178186

>  <r_i_glide_lipo>  (1) 
-1.6629494362992099

>  <r_i_glide_metal>  (1) 
-0

>  <r_i_glide_rewards>  (1) 
-2.7817784269817087

>  <r_lp_Energy>  (1) 
4.2772959999999998

>  <s_epik_cmdline>  (1) 
J2VwaWtfcHl0aG9uJywgJy1waHQnLCAnMS4wJywgJy1waCcsICc3LjQnLCAnLXRuJywgJzgnLCAnLW1hJywgJzUwMCcsICctaW1hZScsICc8aW5maWxlLm1hZT4nLCAnLW9tYWUnLCAnPG91dGZpbGUubWFlPic=

>  <s_epik_input>  (1) 
W0NIMl0xW0NIMl1bQ0gyXVtDSDJdTjFjMltjSF1jKFtjSF1bY0hdW2NIXTIpTihbQ0gyXVtDQEBIXTNGKVtOSF1OM1tDSDNd

>  <s_glide_docking_method>  (1) 
confgen

>  <s_i_glide_gridfile>  (1) 
gpcr_drd2_6luq_protein_autoprepared_prepared

>  <s_lp_Force_Field>  (1) 
S-OPLS

>  <s_lp_Variant>  (1) 
DiffSBDD_43_num_sample_100-1

>  <s_m_source_file>  (1) 
generated__ligand_DiffSBDD_2026-05-06_prepared.sdf

>  <GenAI_Model>  (1) 
DiffSBDD

>  <Protein>  (1) 
generic_title2

$$$$
DiffSBDD_75_num_sample_100
     RDKit          3D

  0  0  0  0  0  0  0  0  0  0999 V3000
M  V30 BEGIN CTAB
M  V30 COUNTS 76 81 0 0 1
M  V30 BEGIN ATOM
M  V30 1 C 7.021206 1.985854 -13.091670 0
M  V30 2 C 6.874513 3.399393 -12.542155 0
M  V30 3 C 9.828332 6.452274 -10.962684 0
M  V30 4 C 10.779210 8.071069 -6.360237 0 CFG=2
M  V30 5 F 6.634840 8.051627 -15.454490 0
M  V30 6 C 8.190860 1.735577 -14.034905 0
M  V30 7 C 8.077403 4.150104 -14.812269 0 CFG=1
M  V30 8 N 6.907831 5.857355 -13.344351 0
M  V30 9 O 13.434840 8.569302 -11.185876 0 CHG=-1
M  V30 10 C 8.126423 2.647608 -15.300994 0 CFG=2
M  V30 11 C 6.530445 0.369295 -18.939389 0 CFG=1
M  V30 12 N 13.012331 8.331026 -10.061582 0 CHG=1
M  V30 13 C 9.169260 6.409120 -7.324668 0
M  V30 14 O 13.625164 8.569301 -9.030551 0
M  V30 15 C 8.037571 5.277471 -15.892219 0
M  V30 16 C 11.685021 7.657661 -9.950724 0
M  V30 17 C 6.201263 1.748812 -18.418203 0 CFG=1
M  V30 18 C 10.065391 6.734942 -6.115100 0
M  V30 19 C 5.956467 0.535599 -17.552497 0 CFG=2
M  V30 20 C 7.858414 6.570601 -12.647347 0
M  V30 21 N 11.655034 7.925789 -7.503148 0
M  V30 22 C 6.632512 5.833074 -16.284858 0
M  V30 23 N 7.034837 2.221215 -16.231534 0 CFG=1 CHG=1
M  V30 24 C 7.162237 2.636509 -17.653687 0
M  V30 25 C 5.754032 -0.292113 -20.059040 0
M  V30 26 O 6.234839 1.092414 -12.790724 0
M  V30 27 C 5.731008 6.531084 -13.894481 0
M  V30 28 O 7.910497 0.070178 -18.957176 0
M  V30 29 C 5.965425 6.908791 -15.377232 0 CFG=1
M  V30 30 O 7.730335 7.770779 -12.406884 0
M  V30 31 O 11.034840 9.769303 -4.608945 0
M  V30 32 C 6.751375 0.758424 -16.287822 0
M  V30 33 C 9.856275 6.700118 -8.653044 0
M  V30 34 C 11.029152 7.182133 -11.108249 0
M  V30 35 N 9.257589 6.189388 -9.761021 0
M  V30 36 C 9.141439 5.837839 -12.188633 0
M  V30 37 C 11.616031 8.618559 -5.174312 0
M  V30 38 C 11.068262 7.436211 -8.688704 0
M  V30 39 C 7.026311 4.417585 -13.697593 0 CFG=2
M  V30 40 H 7.588108 3.521713 -11.736590 0
M  V30 41 H 5.889298 3.503047 -12.086304 0
M  V30 42 H 10.030709 8.819541 -6.626714 0
M  V30 43 H 9.058712 1.972698 -13.432763 0
M  V30 44 H 8.273084 0.675177 -14.269221 0
M  V30 45 H 9.052212 4.267944 -14.343684 0
M  V30 46 H 9.034824 2.499992 -15.891669 0
M  V30 47 H 8.272639 7.019474 -7.272128 0
M  V30 48 H 8.844881 5.369299 -7.293061 0
M  V30 49 H 8.566421 4.934835 -16.781220 0
M  V30 50 H 8.634398 6.117645 -15.538160 0
M  V30 51 H 5.310727 2.243606 -18.802449 0
M  V30 52 H 10.810860 5.948562 -5.990387 0
M  V30 53 H 9.479305 6.746413 -5.200881 0
M  V30 54 H 4.931681 0.198727 -17.408089 0
M  V30 55 H 12.446894 8.554371 -7.581135 0
M  V30 56 H 5.935921 5.012080 -16.382771 0
M  V30 57 H 6.714142 6.261214 -17.283928 0
M  V30 58 H 6.906780 3.676436 -17.829637 0
M  V30 59 H 8.177826 2.481663 -18.020172 0
M  V30 60 H 4.690220 -0.062712 -19.974142 0
M  V30 61 H 6.103165 0.062528 -21.029565 0
M  V30 62 H 5.874234 -1.375263 -20.017993 0
M  V30 63 H 4.875614 5.860002 -13.824012 0
M  V30 64 H 5.441039 7.408173 -13.314051 0
M  V30 65 H 8.225810 0.151048 -19.845250 0
M  V30 66 H 4.999043 7.162445 -15.813206 0
M  V30 67 H 10.996527 10.439431 -5.274794 0
M  V30 68 H 7.672705 0.175842 -16.340014 0
M  V30 69 H 6.175211 0.419202 -15.426483 0
M  V30 70 H 11.464079 7.327024 -12.084662 0
M  V30 71 H 9.847405 5.887084 -13.017134 0
M  V30 72 H 9.025836 4.786213 -11.978295 0
M  V30 73 H 12.599592 8.969301 -5.495579 0
M  V30 74 H 11.773447 7.860663 -4.406901 0
M  V30 75 H 6.104515 4.193589 -14.234645 0
M  V30 76 H 6.180199 2.635182 -15.889405 0
M  V30 END ATOM
M  V30 BEGIN BOND
M  V30 1 1 2 1
M  V30 2 1 6 1
M  V30 3 1 10 6
M  V30 4 1 10 7
M  V30 5 1 12 9
M  V30 6 2 14 12
M  V30 7 1 15 7
M  V30 8 1 16 12
M  V30 9 1 17 11
M  V30 10 1 18 4
M  V30 11 1 18 13
M  V30 12 1 19 11
M  V30 13 1 19 17
M  V30 14 1 20 8
M  V30 15 1 21 4
M  V30 16 1 22 15
M  V30 17 1 23 10
M  V30 18 1 24 17
M  V30 19 1 24 23
M  V30 20 1 25 11
M  V30 21 2 26 1
M  V30 22 1 27 8
M  V30 23 1 11 28 CFG=1
M  V30 24 1 29 5
M  V30 25 1 29 22
M  V30 26 1 29 27
M  V30 27 2 30 20
M  V30 28 1 32 19
M  V30 29 1 32 23
M  V30 30 1 33 13
M  V30 31 2 34 3
M  V30 32 1 34 16
M  V30 33 1 35 3
M  V30 34 2 35 33
M  V30 35 1 36 3
M  V30 36 1 36 20
M  V30 37 1 37 4
M  V30 38 1 37 31
M  V30 39 2 38 16
M  V30 40 1 38 21
M  V30 41 1 38 33
M  V30 42 1 39 2
M  V30 43 1 39 7
M  V30 44 1 39 8
M  V30 45 1 40 2
M  V30 46 1 41 2
M  V30 47 1 4 42 CFG=3
M  V30 48 1 43 6
M  V30 49 1 44 6
M  V30 50 1 7 45 CFG=1
M  V30 51 1 10 46 CFG=3
M  V30 52 1 47 13
M  V30 53 1 48 13
M  V30 54 1 49 15
M  V30 55 1 50 15
M  V30 56 1 17 51 CFG=3
M  V30 57 1 52 18
M  V30 58 1 53 18
M  V30 59 1 19 54 CFG=1
M  V30 60 1 55 21
M  V30 61 1 56 22
M  V30 62 1 57 22
M  V30 63 1 58 24
M  V30 64 1 59 24
M  V30 65 1 60 25
M  V30 66 1 61 25
M  V30 67 1 62 25
M  V30 68 1 63 27
M  V30 69 1 64 27
M  V30 70 1 65 28
M  V30 71 1 29 66 CFG=3
M  V30 72 1 67 31
M  V30 73 1 68 32
M  V30 74 1 69 32
M  V30 75 1 70 34
M  V30 76 1 71 36
M  V30 77 1 72 36
M  V30 78 1 73 37
M  V30 79 1 74 37
M  V30 80 1 39 75 CFG=3
M  V30 81 1 23 76 CFG=1
M  V30 END BOND
M  V30 END CTAB
M  END
>  <i_epik_Tot_Q>  (1) 
1

>  <i_epik_Tot_abs_Q>  (1) 
3

>  <i_i_glide_confnum>  (1) 
173

>  <i_i_glide_lignum>  (1) 
151

>  <i_i_glide_posenum>  (1) 
386

>  <i_i_glide_rotatable_bonds>  (1) 
8

>  <i_lp_mmshare_version>  (1) 
72125

>  <i_m_source_file_index>  (1) 
76

>  <i_f3d_flags>  (1) 
0

>  <num_sample>  (1) 
100

>  <b_lp_Chiralities_Consistent>  (1) 
1

>  <r_epik_Charging_Adjusted_Penalty>  (1) 
0.015891369841317948

>  <r_epik_Ionization_Penalty>  (1) 
0.0079711574059170582

>  <r_epik_Ionization_Penalty_Charging>  (1) 
0.0079456849206589655

>  <r_epik_Ionization_Penalty_Neutral>  (1) 
2.5472485258093083e-05

>  <r_epik_State_Penalty>  (1) 
0.0079456849206589828

>  <r_glide_ring_energy>  (1) 
0

>  <r_i_docking_score>  (1) 
-5.4898024638161038

>  <r_i_glide_ecoul>  (1) 
-0.44117903910139566

>  <r_i_glide_eff_state_penalty>  (1) 
0.0079456849206589828

>  <r_i_glide_einternal>  (1) 
4.935367355078597

>  <r_i_glide_emodel>  (1) 
-32.55663409690375

>  <r_i_glide_emodel_strain>  (1) 
2.2368687469475645

>  <r_i_glide_energy>  (1) 
-34.925491448082226

>  <r_i_glide_erotb>  (1) 
0.34657339541443727

>  <r_i_glide_esite>  (1) 
-0.09908211161838304

>  <r_i_glide_evdw>  (1) 
-34.484312408980834

>  <r_i_glide_gscore>  (1) 
-5.497748148736763

>  <r_i_glide_gscore_strain>  (1) 
0

>  <r_i_glide_hbond>  (1) 
0

>  <r_i_glide_ligand_efficiency>  (1) 
-0.14076416573887446

>  <r_i_glide_ligand_efficiency_ln>  (1) 
-1.1771694855523496

>  <r_i_glide_ligand_efficiency_sa>  (1) 
-0.47736104962001386

>  <r_i_glide_lipo>  (1) 
-2.4892753904959473

>  <r_i_glide_metal>  (1) 
-0

>  <r_i_glide_rewards>  (1) 
-1.4655715657226187

>  <r_lp_Energy>  (1) 
44.445350999999995

>  <r_lp_tautomer_probability>  (1) 
0.99999997999999912

>  <s_epik_cmdline>  (1) 
J2VwaWtfcHl0aG9uJywgJy1waHQnLCAnMS4wJywgJy1waCcsICc3LjQnLCAnLXRuJywgJzgnLCAnLW1hJywgJzUwMCcsICctaW1hZScsICc8aW5maWxlLm1hZT4nLCAnLW9tYWUnLCAnPG91dGZpbGUubWFlPic=

>  <s_epik_input>  (1) 
W0NIM11bQ0BdMShbT0hdKVtDQEhdKFtDQEhdMTIpW0NIMl1OKFtDSDJdMilbQ0BASF0zW0NIMl1DKD1PKVtDSDJdW0NASF0oW0NAQEhdMzQpTihbQ0gyXVtDQEBIXShGKVtDSDJdW0NIMl00KUMoPU8pW0NIMl1jKG41KVtjSF1jKFtOK10oW08tXSk9TyljKGM1NilbTkhdW0NAQEhdKFtDSDJdW0NIMl02KVtDSDJdW09IXQ==

>  <s_glide_docking_method>  (1) 
confgen

>  <s_i_glide_gridfile>  (1) 
gpcr_drd2_6luq_protein_autoprepared_prepared

>  <s_lp_Force_Field>  (1) 
S-OPLS

>  <s_lp_Variant>  (1) 
DiffSBDD_75_num_sample_100-2

>  <s_m_source_file>  (1) 
generated__ligand_DiffSBDD_2026-05-06_prepared.sdf

>  <GenAI_Model>  (1) 
DiffSBDD

>  <Protein>  (1) 
generic_title2

$$$$
DiffSBDD_74_num_sample_100
     RDKit          3D

  0  0  0  0  0  0  0  0  0  0999 V3000
M  V30 BEGIN CTAB
M  V30 COUNTS 50 51 0 0 1
M  V30 BEGIN ATOM
M  V30 1 C 9.034843 5.065077 -10.382351 0
M  V30 2 C 6.234835 0.387925 -12.268239 0
M  V30 3 F 8.330805 4.889887 -14.868917 0
M  V30 4 C 9.966363 7.676100 -9.279813 0 CFG=1
M  V30 5 O 5.817603 -0.251992 -15.134217 0
M  V30 6 C 6.767550 2.751238 -13.019800 0
M  V30 7 C 7.902140 6.542133 -12.071712 0
M  V30 8 C 9.864001 7.401260 -10.801487 0 CFG=1
M  V30 9 F 11.058561 8.969317 -7.636924 0
M  V30 10 C 9.076623 5.305345 -8.871117 0
M  V30 11 F 7.857787 5.616743 -8.439911 0
M  V30 12 F 11.038320 7.045534 -11.319284 0
M  V30 13 C 10.079083 6.385295 -8.453676 0
M  V30 14 C 6.390490 3.956512 -13.917312 0 CFG=2
M  V30 15 C 6.163263 1.384351 -13.445178 0 CFG=1
M  V30 16 O 8.004743 0.169301 -14.453129 0
M  V30 17 C 11.103764 8.657084 -8.931684 0
M  V30 18 C 6.742501 0.732539 -14.734696 0
M  V30 19 O 7.719059 7.563363 -12.736308 0
M  V30 20 C 7.834838 2.843625 -15.793437 0
M  V30 21 F 9.434833 4.169303 -8.291669 0
M  V30 22 N 8.896633 6.344891 -11.103894 0
M  V30 23 C 7.274786 4.132905 -15.167576 0 CFG=2
M  V30 24 C 6.908930 1.632759 -15.979625 0
M  V30 25 O 7.162127 5.434728 -12.182719 0
M  V30 26 F 12.304736 8.145869 -9.207667 0
M  V30 27 C 6.155064 5.275572 -13.154286 0
M  V30 28 H 8.268000 4.311924 -10.558411 0
M  V30 29 H 9.948455 4.591237 -10.728574 0
M  V30 30 H 7.264107 0.129970 -12.023929 0
M  V30 31 H 5.807056 0.806771 -11.360063 0
M  V30 32 H 5.703503 -0.540140 -12.477075 0
M  V30 33 H 9.034844 8.155149 -8.981801 0
M  V30 34 H 5.663207 -0.849092 -14.411023 0
M  V30 35 H 7.848355 2.684754 -12.889409 0
M  V30 36 H 6.374763 2.968574 -12.025735 0
M  V30 37 H 9.603125 8.335145 -11.301024 0
M  V30 38 H 9.965029 6.602122 -7.391062 0
M  V30 39 H 11.078502 5.985222 -8.569686 0
M  V30 40 H 5.401549 3.769299 -14.291668 0
M  V30 41 H 5.100468 1.563144 -13.609064 0
M  V30 42 H 8.523307 0.818236 -14.003616 0
M  V30 43 H 11.018533 9.587412 -9.491667 0
M  V30 44 H 8.634838 2.504882 -15.160056 0
M  V30 45 H 8.292638 3.096172 -16.750514 0
M  V30 46 H 6.719857 4.695480 -15.919481 0
M  V30 47 H 7.348657 1.014539 -16.764676 0
M  V30 48 H 5.948412 1.919623 -16.391349 0
M  V30 49 H 6.091660 6.116598 -13.846248 0
M  V30 50 H 5.202549 5.230041 -12.625747 0
M  V30 END ATOM
M  V30 BEGIN BOND
M  V30 1 1 8 4
M  V30 2 1 10 1
M  V30 3 1 11 10
M  V30 4 1 12 8
M  V30 5 1 13 4
M  V30 6 1 13 10
M  V30 7 1 14 6
M  V30 8 1 15 2
M  V30 9 1 15 6
M  V30 10 1 17 4
M  V30 11 1 17 9
M  V30 12 1 18 5
M  V30 13 1 18 15
M  V30 14 1 18 16
M  V30 15 2 19 7
M  V30 16 1 21 10
M  V30 17 1 22 1
M  V30 18 1 22 7
M  V30 19 1 22 8
M  V30 20 1 23 3
M  V30 21 1 23 14
M  V30 22 1 23 20
M  V30 23 1 24 18
M  V30 24 1 24 20
M  V30 25 1 25 7
M  V30 26 1 26 17
M  V30 27 1 27 14
M  V30 28 1 27 25
M  V30 29 1 28 1
M  V30 30 1 29 1
M  V30 31 1 30 2
M  V30 32 1 31 2
M  V30 33 1 32 2
M  V30 34 1 4 33 CFG=1
M  V30 35 1 34 5
M  V30 36 1 35 6
M  V30 37 1 36 6
M  V30 38 1 8 37 CFG=3
M  V30 39 1 38 13
M  V30 40 1 39 13
M  V30 41 1 14 40 CFG=3
M  V30 42 1 15 41 CFG=3
M  V30 43 1 42 16
M  V30 44 1 43 17
M  V30 45 1 44 20
M  V30 46 1 45 20
M  V30 47 1 23 46 CFG=3
M  V30 48 1 47 24
M  V30 49 1 48 24
M  V30 50 1 49 27
M  V30 51 1 50 27
M  V30 END BOND
M  V30 END CTAB
M  END
>  <i_epik_Tot_Q>  (1) 
0

>  <i_epik_Tot_abs_Q>  (1) 
0

>  <i_i_glide_confnum>  (1) 
98

>  <i_i_glide_lignum>  (1) 
148

>  <i_i_glide_posenum>  (1) 
42

>  <i_i_glide_rotatable_bonds>  (1) 
7

>  <i_lp_mmshare_version>  (1) 
72125

>  <i_m_source_file_index>  (1) 
75

>  <i_f3d_flags>  (1) 
0

>  <num_sample>  (1) 
100

>  <b_lp_Chiralities_Consistent>  (1) 
1

>  <r_epik_Charging_Adjusted_Penalty>  (1) 
0

>  <r_epik_Ionization_Penalty>  (1) 
3.1339630279600532e-07

>  <r_epik_Ionization_Penalty_Charging>  (1) 
0

>  <r_epik_Ionization_Penalty_Neutral>  (1) 
3.1339630279600532e-07

>  <r_epik_State_Penalty>  (1) 
-0

>  <r_glide_ring_energy>  (1) 
0.404119403080484

>  <r_i_docking_score>  (1) 
-5.488743127828716

>  <r_i_glide_ecoul>  (1) 
-1.2170964463219653

>  <r_i_glide_eff_state_penalty>  (1) 
-0

>  <r_i_glide_einternal>  (1) 
3.0529167541092761

>  <r_i_glide_emodel>  (1) 
-39.137569070235728

>  <r_i_glide_emodel_strain>  (1) 
0.1444257112245495

>  <r_i_glide_energy>  (1) 
-30.38541530733637

>  <r_i_glide_erotb>  (1) 
0.47417469053287281

>  <r_i_glide_esite>  (1) 
-0.21732114015825946

>  <r_i_glide_evdw>  (1) 
-29.168318861014406

>  <r_i_glide_gscore>  (1) 
-5.488743127828716

>  <r_i_glide_gscore_strain>  (1) 
0

>  <r_i_glide_hbond>  (1) 
-0.14161958231824506

>  <r_i_glide_ligand_efficiency>  (1) 
-0.20328678251217466

>  <r_i_glide_ligand_efficiency_ln>  (1) 
-1.2776889111559631

>  <r_i_glide_ligand_efficiency_sa>  (1) 
-0.60986034753652407

>  <r_i_glide_lipo>  (1) 
-1.4394363075796774

>  <r_i_glide_metal>  (1) 
-0

>  <r_i_glide_rewards>  (1) 
-2.5235603783063918

>  <r_lp_Energy>  (1) 
22.804843999999999

>  <r_lp_tautomer_probability>  (1) 
1

>  <s_epik_Chemistry_Notes>  (1) 
This compound has an ester and may undergo hydrolysis at high or low pH.

>  <s_epik_cmdline>  (1) 
J2VwaWtfcHl0aG9uJywgJy1waHQnLCAnMS4wJywgJy1waCcsICc3LjQnLCAnLXRuJywgJzgnLCAnLW1hJywgJzUwMCcsICctaW1hZScsICc8aW5maWxlLm1hZT4nLCAnLW9tYWUnLCAnPG91dGZpbGUubWFlPic=

>  <s_epik_input>  (1) 
RltDSF0oRilbQ0BIXShbQ0gyXTEpW0NAQEhdKEYpTihbQ0gyXUMxKEYpRilDKD1PKU9bQ0gyXVtDQEBIXShbQ0BASF0oRilbQ0gyXVtDSDJdMilbQ0gyXVtDQEhdKFtDSDNdKUMyKFtPSF0pW09IXQ==

>  <s_glide_docking_method>  (1) 
confgen

>  <s_i_glide_gridfile>  (1) 
gpcr_drd2_6luq_protein_autoprepared_prepared

>  <s_lp_Force_Field>  (1) 
S-OPLS

>  <s_lp_Variant>  (1) 
DiffSBDD_74_num_sample_100-1

>  <s_m_source_file>  (1) 
generated__ligand_DiffSBDD_2026-05-06_prepared.sdf

>  <GenAI_Model>  (1) 
DiffSBDD

>  <Protein>  (1) 
generic_title2

$$$$
DiffSBDD_58_num_sample_100
     RDKit          3D

  0  0  0  0  0  0  0  0  0  0999 V3000
M  V30 BEGIN CTAB
M  V30 COUNTS 48 50 0 0 1
M  V30 BEGIN ATOM
M  V30 1 C 9.633665 6.788037 -9.712085 0
M  V30 2 C 11.434640 7.075011 -4.888134 0
M  V30 3 C 7.558663 5.033031 -11.623587 0
M  V30 4 C 11.567216 8.462042 -9.489679 0
M  V30 5 C 10.166186 8.035220 -8.983972 0 CFG=2
M  V30 6 C 9.038483 5.314723 -11.962864 0 CFG=1
M  V30 7 C 12.234234 8.057777 -2.809385 0
M  V30 8 C 9.174629 5.088885 -13.471918 0
M  V30 9 C 7.746655 5.154725 -14.017070 0 CFG=1
M  V30 10 N 12.633882 7.924026 -1.491682 0
M  V30 11 O 11.064145 8.534784 -6.805819 0
M  V30 12 C 10.156278 7.785662 -7.464694 0
M  V30 13 C 12.234134 9.322108 -3.403850 0
M  V30 14 O 9.386597 6.980746 -6.940337 0
M  V30 15 C 11.430425 8.361866 -5.490268 0
M  V30 16 O 6.634369 2.520200 -14.313943 0
M  V30 17 C 11.835061 6.930051 -3.546944 0
M  V30 18 S 9.540910 6.996695 -11.506245 0
M  V30 19 C 6.974649 2.958981 -13.004622 0
M  V30 20 C 7.535715 2.972310 -15.315557 0
M  V30 21 C 7.522241 4.506285 -15.391174 0
M  V30 22 C 11.832738 9.478629 -4.740263 0
M  V30 23 C 6.913253 4.499868 -12.912543 0 CFG=1
M  V30 24 H 10.240464 5.914182 -9.482087 0
M  V30 25 H 8.633773 6.556279 -9.358812 0
M  V30 26 H 11.139717 6.204830 -5.453728 0
M  V30 27 H 7.456666 4.339457 -10.788630 0
M  V30 28 H 7.053233 5.952600 -11.323175 0
M  V30 29 H 11.870351 9.411284 -9.048384 0
M  V30 30 H 12.331888 7.721568 -9.253016 0
M  V30 31 H 11.585072 8.616208 -10.567256 0
M  V30 32 H 9.472473 8.857212 -9.171149 0
M  V30 33 H 9.691221 4.611370 -11.443532 0
M  V30 34 H 9.863701 5.770024 -13.964343 0
M  V30 35 H 9.586462 4.098221 -13.618400 0
M  V30 36 H 7.467334 6.207489 -14.083539 0
M  V30 37 H 13.044576 8.703764 -0.995584 0
M  V30 38 H 12.769030 7.009216 -1.087595 0
M  V30 39 H 12.545668 10.169597 -2.831440 0
M  V30 40 H 11.838993 5.951872 -3.087510 0
M  V30 41 H 7.961571 2.577899 -12.736795 0
M  V30 42 H 6.271025 2.520033 -12.296549 0
M  V30 43 H 8.535567 2.594697 -15.116350 0
M  V30 44 H 7.232439 2.552143 -16.274425 0
M  V30 45 H 8.268755 4.860535 -16.102211 0
M  V30 46 H 6.555583 4.828544 -15.778443 0
M  V30 47 H 11.839611 10.457896 -5.194309 0
M  V30 48 H 5.871383 4.813723 -12.985479 0
M  V30 END ATOM
M  V30 BEGIN BOND
M  V30 1 1 5 1
M  V30 2 1 5 4
M  V30 3 1 6 3
M  V30 4 1 8 6
M  V30 5 1 9 8
M  V30 6 1 10 7
M  V30 7 1 12 5
M  V30 8 1 12 11
M  V30 9 1 13 7
M  V30 10 2 14 12
M  V30 11 2 15 2
M  V30 12 1 15 11
M  V30 13 1 17 2
M  V30 14 2 17 7
M  V30 15 1 18 1
M  V30 16 1 18 6
M  V30 17 1 19 16
M  V30 18 1 20 16
M  V30 19 1 21 9
M  V30 20 1 21 20
M  V30 21 2 22 13
M  V30 22 1 22 15
M  V30 23 1 23 3
M  V30 24 1 23 9
M  V30 25 1 23 19
M  V30 26 1 24 1
M  V30 27 1 25 1
M  V30 28 1 26 2
M  V30 29 1 27 3
M  V30 30 1 28 3
M  V30 31 1 29 4
M  V30 32 1 30 4
M  V30 33 1 31 4
M  V30 34 1 5 32 CFG=1
M  V30 35 1 6 33 CFG=1
M  V30 36 1 34 8
M  V30 37 1 35 8
M  V30 38 1 9 36 CFG=3
M  V30 39 1 37 10
M  V30 40 1 38 10
M  V30 41 1 39 13
M  V30 42 1 40 17
M  V30 43 1 41 19
M  V30 44 1 42 19
M  V30 45 1 43 20
M  V30 46 1 44 20
M  V30 47 1 45 21
M  V30 48 1 46 21
M  V30 49 1 47 22
M  V30 50 1 23 48 CFG=3
M  V30 END BOND
M  V30 END CTAB
M  END
>  <i_epik_Tot_Q>  (1) 
0

>  <i_epik_Tot_abs_Q>  (1) 
0

>  <i_i_glide_confnum>  (1) 
331

>  <i_i_glide_lignum>  (1) 
116

>  <i_i_glide_posenum>  (1) 
79

>  <i_i_glide_rotatable_bonds>  (1) 
6

>  <i_lp_mmshare_version>  (1) 
72125

>  <i_m_source_file_index>  (1) 
59

>  <i_f3d_flags>  (1) 
0

>  <num_sample>  (1) 
100

>  <b_lp_Chiralities_Consistent>  (1) 
1

>  <r_epik_Charging_Adjusted_Penalty>  (1) 
0.0033808002230057204

>  <r_epik_Ionization_Penalty>  (1) 
0.0033808103155764289

>  <r_epik_Ionization_Penalty_Charging>  (1) 
0

>  <r_epik_Ionization_Penalty_Neutral>  (1) 
0.0033808103155764289

>  <r_epik_State_Penalty>  (1) 
0.0033808002230057204

>  <r_glide_ring_energy>  (1) 
0.00081652608624333781

>  <r_i_docking_score>  (1) 
-5.4865078435289849

>  <r_i_glide_ecoul>  (1) 
-1.1457579034201908

>  <r_i_glide_eff_state_penalty>  (1) 
0.0033808002230057204

>  <r_i_glide_einternal>  (1) 
7.4557244412547101

>  <r_i_glide_emodel>  (1) 
-44.31849300606919

>  <r_i_glide_emodel_strain>  (1) 
0.74808789474290904

>  <r_i_glide_energy>  (1) 
-36.458438626634397

>  <r_i_glide_erotb>  (1) 
0.83854581213583013

>  <r_i_glide_esite>  (1) 
-0.047368277842910943

>  <r_i_glide_evdw>  (1) 
-35.312680723214207

>  <r_i_glide_gscore>  (1) 
-5.4898886437519909

>  <r_i_glide_gscore_strain>  (1) 
0

>  <r_i_glide_hbond>  (1) 
0

>  <r_i_glide_ligand_efficiency>  (1) 
-0.23854381928386892

>  <r_i_glide_ligand_efficiency_ln>  (1) 
-1.3266873454679211

>  <r_i_glide_ligand_efficiency_sa>  (1) 
-0.67838689090907389

>  <r_i_glide_lipo>  (1) 
-2.7955713463147753

>  <r_i_glide_metal>  (1) 
-0

>  <r_i_glide_rewards>  (1) 
-1.5479971100563958

>  <r_lp_Energy>  (1) 
27.491351999999999

>  <s_epik_cmdline>  (1) 
J2VwaWtfcHl0aG9uJywgJy1waHQnLCAnMS4wJywgJy1waCcsICc3LjQnLCAnLXRuJywgJzgnLCAnLW1hJywgJzUwMCcsICctaW1hZScsICc8aW5maWxlLm1hZT4nLCAnLW9tYWUnLCAnPG91dGZpbGUubWFlPic=

>  <s_epik_input>  (1) 
W0NIMl0xW0NIMl1PW0NIMl1bQ0BIXShbQ0BIXTEyKVtDSDJdW0NAQEhdKFtDSDJdMilTW0NIMl1bQ0BIXShbQ0gzXSlDKD1PKU9jKFtjSF1bY0hdMylbY0hdW2NIXWMzW05IMl0=

>  <s_glide_docking_method>  (1) 
confgen

>  <s_i_glide_gridfile>  (1) 
gpcr_drd2_6luq_protein_autoprepared_prepared

>  <s_lp_Force_Field>  (1) 
S-OPLS

>  <s_lp_Variant>  (1) 
DiffSBDD_58_num_sample_100-1

>  <s_m_source_file>  (1) 
generated__ligand_DiffSBDD_2026-05-06_prepared.sdf

>  <GenAI_Model>  (1) 
DiffSBDD

>  <Protein>  (1) 
generic_title2

$$$$
DiffSBDD_44_num_sample_100
     RDKit          3D

  0  0  0  0  0  0  0  0  0  0999 V3000
M  V30 BEGIN CTAB
M  V30 COUNTS 55 57 0 0 1
M  V30 BEGIN ATOM
M  V30 1 C 8.430777 0.424354 -13.497646 0
M  V30 2 C 7.323332 1.340240 -14.092414 0 CFG=1
M  V30 3 C 11.528910 9.218879 -6.794481 0
M  V30 4 C 11.991293 8.330906 -4.153835 0
M  V30 5 C 11.263736 7.529189 -5.042752 0
M  V30 6 C 8.794901 4.668657 -11.135966 0
M  V30 7 C 7.418976 1.322934 -15.609060 0
M  V30 8 N 5.975726 0.768466 -13.911233 0
M  V30 9 C 9.287286 6.032623 -10.640406 0
M  V30 10 C 9.834828 7.381692 -8.485664 0
M  V30 11 O 9.967830 8.458716 -9.064412 0
M  V30 12 C 12.483223 9.566401 -4.576141 0
M  V30 13 N 12.234836 7.892164 -2.852337 0
M  V30 14 C 6.281695 0.634924 -16.307508 0
M  V30 15 N 10.289528 7.088146 -7.266656 0
M  V30 16 C 8.794929 4.594316 -12.658365 0
M  V30 17 O 6.397329 3.541428 -13.684412 0
M  V30 18 C 9.577155 5.081201 -8.190211 0
M  V30 19 C 5.643624 -0.049008 -15.089298 0
M  V30 20 N 8.559759 3.228185 -13.091680 0
M  V30 21 C 5.671923 0.102705 -12.649815 0
M  V30 22 C 9.092912 6.205833 -9.131257 0 CFG=2
M  V30 23 C 9.998458 5.769314 -6.862251 0
M  V30 24 C 11.025407 7.964735 -6.374911 0
M  V30 25 C 7.386173 2.809755 -13.596063 0
M  V30 26 C 12.248635 10.015339 -5.891712 0
M  V30 27 O 8.361510 1.824318 -16.223271 0
M  V30 28 H 9.417683 0.879404 -13.491638 0
M  V30 29 H 8.234826 0.169363 -12.458925 0
M  V30 30 H 8.521266 -0.499941 -14.070860 0
M  V30 31 H 11.390248 9.569181 -7.796203 0
M  V30 32 H 10.888987 6.576106 -4.704380 0
M  V30 33 H 9.432012 3.880083 -10.733213 0
M  V30 34 H 7.784980 4.475714 -10.768860 0
M  V30 35 H 8.717087 6.818307 -11.140215 0
M  V30 36 H 10.322254 6.193008 -10.928276 0
M  V30 37 H 13.051155 10.169309 -3.892913 0
M  V30 38 H 12.749926 8.458508 -2.192444 0
M  V30 39 H 11.890389 7.001744 -2.521689 0
M  V30 40 H 5.620108 1.369331 -16.763482 0
M  V30 41 H 6.619454 -0.073790 -17.063581 0
M  V30 42 H 8.077120 5.298250 -13.084201 0
M  V30 43 H 9.772132 4.888503 -13.043394 0
M  V30 44 H 8.799932 4.338078 -8.012111 0
M  V30 45 H 10.419705 4.555483 -8.628513 0
M  V30 46 H 4.564267 -0.165250 -15.198044 0
M  V30 47 H 6.078230 -1.038371 -14.976545 0
M  V30 48 H 9.330540 2.579294 -13.037303 0
M  V30 49 H 4.634822 -0.221667 -12.650124 0
M  V30 50 H 6.264116 -0.800044 -12.502848 0
M  V30 51 H 5.834724 0.769854 -11.803096 0
M  V30 52 H 8.028051 6.169300 -8.916144 0
M  V30 53 H 10.930070 5.369310 -6.478540 0
M  V30 54 H 9.204698 5.769330 -6.114408 0
M  V30 55 H 12.634753 10.969000 -6.214017 0
M  V30 END ATOM
M  V30 BEGIN BOND
M  V30 1 1 2 1 CFG=1
M  V30 2 2 5 4
M  V30 3 1 7 2
M  V30 4 1 8 2
M  V30 5 1 9 6
M  V30 6 2 11 10
M  V30 7 1 12 4
M  V30 8 1 13 4
M  V30 9 1 14 7
M  V30 10 1 15 10
M  V30 11 1 16 6
M  V30 12 1 19 8
M  V30 13 1 19 14
M  V30 14 1 20 16
M  V30 15 1 21 8
M  V30 16 1 22 9
M  V30 17 1 22 10
M  V30 18 1 22 18
M  V30 19 1 23 15
M  V30 20 1 23 18
M  V30 21 2 24 3
M  V30 22 1 24 5
M  V30 23 1 24 15
M  V30 24 1 25 2
M  V30 25 2 25 17
M  V30 26 1 25 20
M  V30 27 1 26 3
M  V30 28 2 26 12
M  V30 29 2 27 7
M  V30 30 1 28 1
M  V30 31 1 29 1
M  V30 32 1 30 1
M  V30 33 1 31 3
M  V30 34 1 32 5
M  V30 35 1 33 6
M  V30 36 1 34 6
M  V30 37 1 35 9
M  V30 38 1 36 9
M  V30 39 1 37 12
M  V30 40 1 38 13
M  V30 41 1 39 13
M  V30 42 1 40 14
M  V30 43 1 41 14
M  V30 44 1 42 16
M  V30 45 1 43 16
M  V30 46 1 44 18
M  V30 47 1 45 18
M  V30 48 1 46 19
M  V30 49 1 47 19
M  V30 50 1 48 20
M  V30 51 1 49 21
M  V30 52 1 50 21
M  V30 53 1 51 21
M  V30 54 1 22 52 CFG=3
M  V30 55 1 53 23
M  V30 56 1 54 23
M  V30 57 1 55 26
M  V30 END BOND
M  V30 END CTAB
M  END
>  <i_epik_Tot_Q>  (1) 
0

>  <i_epik_Tot_abs_Q>  (1) 
0

>  <i_i_glide_confnum>  (1) 
6

>  <i_i_glide_lignum>  (1) 
77

>  <i_i_glide_posenum>  (1) 
231

>  <i_i_glide_rotatable_bonds>  (1) 
7

>  <i_lp_mmshare_version>  (1) 
72125

>  <i_m_source_file_index>  (1) 
45

>  <i_f3d_flags>  (1) 
0

>  <num_sample>  (1) 
100

>  <b_lp_Chiralities_Consistent>  (1) 
1

>  <r_epik_Charging_Adjusted_Penalty>  (1) 
0.38370982414574223

>  <r_epik_Ionization_Penalty>  (1) 
0.3841777034394574

>  <r_epik_Ionization_Penalty_Charging>  (1) 
0

>  <r_epik_Ionization_Penalty_Neutral>  (1) 
0.3841777034394574

>  <r_epik_State_Penalty>  (1) 
0.38370982414574223

>  <r_glide_ring_energy>  (1) 
0

>  <r_i_docking_score>  (1) 
-5.4774656368290735

>  <r_i_glide_ecoul>  (1) 
-3.6572030431526263

>  <r_i_glide_eff_state_penalty>  (1) 
0.38370982414574223

>  <r_i_glide_einternal>  (1) 
6.4175957407915085

>  <r_i_glide_emodel>  (1) 
-48.591123690437136

>  <r_i_glide_emodel_strain>  (1) 
0.99842969614397248

>  <r_i_glide_energy>  (1) 
-39.709284644480988

>  <r_i_glide_erotb>  (1) 
0.97453214498294238

>  <r_i_glide_esite>  (1) 
-0.090266627568711788

>  <r_i_glide_evdw>  (1) 
-36.052081601328361

>  <r_i_glide_gscore>  (1) 
-5.8611754609748159

>  <r_i_glide_gscore_strain>  (1) 
0

>  <r_i_glide_hbond>  (1) 
0

>  <r_i_glide_ligand_efficiency>  (1) 
-0.20286909766033606

>  <r_i_glide_ligand_efficiency_ln>  (1) 
-1.2750636971752161

>  <r_i_glide_ligand_efficiency_sa>  (1) 
-0.60860729298100824

>  <r_i_glide_lipo>  (1) 
-2.5951042424423321

>  <r_i_glide_metal>  (1) 
-0

>  <r_i_glide_rewards>  (1) 
-1.7991521994074018

>  <r_lp_Energy>  (1) 
23.583355999999998

>  <r_lp_tautomer_probability>  (1) 
0.99995000000000001

>  <s_epik_cmdline>  (1) 
J2VwaWtfcHl0aG9uJywgJy1waHQnLCAnMS4wJywgJy1waCcsICc3LjQnLCAnLXRuJywgJzgnLCAnLW1hJywgJzUwMCcsICctaW1hZScsICc8aW5maWxlLm1hZT4nLCAnLW9tYWUnLCAnPG91dGZpbGUubWFlPic=

>  <s_epik_input>  (1) 
W0NIM11OMVtDSDJdW0NIMl1DKD1PKVtDQEBdMShbQ0gzXSlDKD1PKVtOSF1bQ0gyXVtDSDJdW0NIMl1bQ0BASF0yW0NIMl1bQ0gyXU4oQzI9TyljKFtjSF1bY0hdW2NIXTMpW2NIXWMzW05IMl0=

>  <s_glide_docking_method>  (1) 
confgen

>  <s_i_glide_gridfile>  (1) 
gpcr_drd2_6luq_protein_autoprepared_prepared

>  <s_lp_Force_Field>  (1) 
S-OPLS

>  <s_lp_Variant>  (1) 
DiffSBDD_44_num_sample_100-2

>  <s_m_source_file>  (1) 
generated__ligand_DiffSBDD_2026-05-06_prepared.sdf

>  <GenAI_Model>  (1) 
DiffSBDD

>  <Protein>  (1) 
generic_title2

$$$$
DiffSBDD_25_num_sample_100
     RDKit          3D

  0  0  0  0  0  0  0  0  0  0999 V3000
M  V30 BEGIN CTAB
M  V30 COUNTS 66 69 0 0 1
M  V30 BEGIN ATOM
M  V30 1 C 10.021283 5.718544 -18.348959 0
M  V30 2 C 10.501501 8.117907 -8.440363 0
M  V30 3 C 9.243308 5.810864 -8.178462 0
M  V30 4 C 8.533108 5.727764 -13.003574 0 CFG=2
M  V30 5 C 11.899534 8.297867 -4.229821 0
M  V30 6 O 10.081062 8.117456 -5.682271 0
M  V30 7 C 10.509807 6.785324 -5.497149 0 CFG=1
M  V30 8 C 11.105670 9.018396 -5.335548 0 CFG=2
M  V30 9 F 10.472610 8.170455 -9.773322 0
M  V30 10 C 11.835400 9.599314 -6.578630 0
M  V30 11 C 7.654861 3.279470 -15.550626 0
M  V30 12 C 11.257087 6.309777 -6.743703 0
M  V30 13 F 9.381962 8.707677 -8.022090 0
M  V30 14 C 7.016827 4.892019 -11.030619 0 CFG=1
M  V30 15 N 8.221168 3.006398 -16.784670 0
M  V30 16 C 10.570388 6.601454 -8.083199 0 CFG=2
M  V30 17 O 8.568204 3.465114 -12.156524 0
M  V30 18 C 6.730828 6.746456 -14.524714 0
M  V30 19 C 7.338356 5.108917 -9.560258 0
M  V30 20 F 6.285534 5.924444 -11.453324 0
M  V30 21 C 7.409826 5.442170 -14.071962 0 CFG=1
M  V30 22 C 9.401886 5.120514 -10.593882 0
M  V30 23 C 8.703751 4.193068 -17.157609 0
M  V30 24 C 9.967577 5.619009 -13.567753 0
M  V30 25 C 11.423781 6.844880 -4.277204 0
M  V30 26 O 8.472786 5.216646 -16.281347 0
M  V30 27 O 10.916914 6.480285 -12.938262 0
M  V30 28 C 11.748552 8.945825 -8.001017 0
M  V30 29 N 8.634940 5.769319 -9.526663 0 CFG=2 CHG=1
M  V30 30 C 7.809707 4.604171 -15.253080 0
M  V30 31 O 9.376743 4.453847 -18.294144 0
M  V30 32 C 8.391238 4.811350 -11.738605 0 CFG=1
M  V30 33 H 10.591817 5.799483 -19.273733 0
M  V30 34 H 9.298578 6.535050 -18.333230 0
M  V30 35 H 10.716357 5.846088 -17.517544 0
M  V30 36 H 8.518507 6.233629 -7.480390 0
M  V30 37 H 9.415923 4.782391 -7.862626 0
M  V30 38 H 8.397825 6.755126 -12.657951 0
M  V30 39 H 12.979470 8.419097 -4.291710 0
M  V30 40 H 11.628889 8.719322 -3.261353 0
M  V30 41 H 9.633437 6.169195 -5.312803 0
M  V30 42 H 10.630177 9.874491 -4.858518 0
M  V30 43 H 12.882465 9.769788 -6.330179 0
M  V30 44 H 11.434758 10.606165 -6.691559 0
M  V30 45 H 7.182313 2.500218 -14.970439 0
M  V30 46 H 11.470761 5.250021 -6.677096 0
M  V30 47 H 12.234890 6.759829 -6.747268 0
M  V30 48 H 6.397811 4.006294 -11.178421 0
M  V30 49 H 11.250728 6.170503 -8.810690 0
M  V30 50 H 9.471691 3.321389 -12.397548 0
M  V30 51 H 5.890720 6.545166 -15.189954 0
M  V30 52 H 6.342825 7.307815 -13.673576 0
M  V30 53 H 7.432652 7.390452 -15.055113 0
M  V30 54 H 7.372591 4.169229 -9.013127 0
M  V30 55 H 6.634827 5.769271 -9.091691 0
M  V30 56 H 6.614168 4.872903 -13.593459 0
M  V30 57 H 9.834736 4.197612 -10.200859 0
M  V30 58 H 10.220383 5.774170 -10.851830 0
M  V30 59 H 10.041223 5.769282 -14.637340 0
M  V30 60 H 10.234844 4.579434 -13.466626 0
M  V30 61 H 10.869824 6.569314 -3.378877 0
M  V30 62 H 12.234820 6.129281 -4.354470 0
M  V30 63 H 11.752952 6.337121 -13.359627 0
M  V30 64 H 12.649906 8.360892 -8.184024 0
M  V30 65 H 11.835020 9.769134 -8.710641 0
M  V30 66 H 8.420226 6.729793 -9.787517 0
M  V30 END ATOM
M  V30 BEGIN BOND
M  V30 1 1 7 6
M  V30 2 1 8 5
M  V30 3 1 8 6
M  V30 4 1 9 2
M  V30 5 1 10 8
M  V30 6 1 12 7
M  V30 7 1 13 2
M  V30 8 1 15 11
M  V30 9 1 16 2
M  V30 10 1 16 3
M  V30 11 1 16 12
M  V30 12 1 19 14
M  V30 13 1 20 14
M  V30 14 1 21 4
M  V30 15 1 21 18
M  V30 16 2 23 15
M  V30 17 1 24 4
M  V30 18 1 25 5
M  V30 19 1 25 7
M  V30 20 1 26 23
M  V30 21 1 27 24
M  V30 22 1 28 2
M  V30 23 1 28 10
M  V30 24 1 29 3
M  V30 25 1 29 19
M  V30 26 1 29 22
M  V30 27 2 30 11
M  V30 28 1 30 21
M  V30 29 1 30 26
M  V30 30 1 31 1
M  V30 31 1 31 23
M  V30 32 1 32 4
M  V30 33 1 32 14
M  V30 34 1 32 17 CFG=3
M  V30 35 1 32 22
M  V30 36 1 33 1
M  V30 37 1 34 1
M  V30 38 1 35 1
M  V30 39 1 36 3
M  V30 40 1 37 3
M  V30 41 1 4 38 CFG=1
M  V30 42 1 39 5
M  V30 43 1 40 5
M  V30 44 1 7 41 CFG=1
M  V30 45 1 8 42 CFG=1
M  V30 46 1 43 10
M  V30 47 1 44 10
M  V30 48 1 45 11
M  V30 49 1 46 12
M  V30 50 1 47 12
M  V30 51 1 14 48 CFG=1
M  V30 52 1 16 49 CFG=3
M  V30 53 1 50 17
M  V30 54 1 51 18
M  V30 55 1 52 18
M  V30 56 1 53 18
M  V30 57 1 54 19
M  V30 58 1 55 19
M  V30 59 1 21 56 CFG=1
M  V30 60 1 57 22
M  V30 61 1 58 22
M  V30 62 1 59 24
M  V30 63 1 60 24
M  V30 64 1 61 25
M  V30 65 1 62 25
M  V30 66 1 63 27
M  V30 67 1 64 28
M  V30 68 1 65 28
M  V30 69 1 29 66 CFG=3
M  V30 END BOND
M  V30 END CTAB
M  END
>  <i_epik_Tot_Q>  (1) 
1

>  <i_epik_Tot_abs_Q>  (1) 
1

>  <i_i_glide_confnum>  (1) 
397

>  <i_i_glide_lignum>  (1) 
38

>  <i_i_glide_posenum>  (1) 
323

>  <i_i_glide_rotatable_bonds>  (1) 
9

>  <i_lp_mmshare_version>  (1) 
72125

>  <i_m_source_file_index>  (1) 
26

>  <i_f3d_flags>  (1) 
0

>  <num_sample>  (1) 
100

>  <b_lp_Chiralities_Consistent>  (1) 
1

>  <r_epik_Charging_Adjusted_Penalty>  (1) 
0.21543991348680042

>  <r_epik_Ionization_Penalty>  (1) 
0.10772808098718631

>  <r_epik_Ionization_Penalty_Charging>  (1) 
0.10771995674340021

>  <r_epik_Ionization_Penalty_Neutral>  (1) 
8.124243786105112e-06

>  <r_epik_State_Penalty>  (1) 
0.10771995674340022

>  <r_glide_ring_energy>  (1) 
0

>  <r_i_docking_score>  (1) 
-5.4756530109753649

>  <r_i_glide_ecoul>  (1) 
-6.373660921337521

>  <r_i_glide_eff_state_penalty>  (1) 
0.10771995674340022

>  <r_i_glide_einternal>  (1) 
22.65449142638591

>  <r_i_glide_emodel>  (1) 
-27.781021113216241

>  <r_i_glide_emodel_strain>  (1) 
5.5032356321029283

>  <r_i_glide_energy>  (1) 
-31.482551922643221

>  <r_i_glide_erotb>  (1) 
0.56277696399540145

>  <r_i_glide_esite>  (1) 
-0.31702312317351861

>  <r_i_glide_evdw>  (1) 
-25.1088910013057

>  <r_i_glide_gscore>  (1) 
-5.5833729677187653

>  <r_i_glide_gscore_strain>  (1) 
0.37580890802573208

>  <r_i_glide_hbond>  (1) 
-0.1625926339873931

>  <r_i_glide_ligand_efficiency>  (1) 
-0.17111415659298015

>  <r_i_glide_ligand_efficiency_ln>  (1) 
-1.2261479698211633

>  <r_i_glide_ligand_efficiency_sa>  (1) 
-0.54325358436469595

>  <r_i_glide_lipo>  (1) 
-2.7057853840817989

>  <r_i_glide_metal>  (1) 
-0

>  <r_i_glide_rewards>  (1) 
-1.1250640102312741

>  <r_lp_Energy>  (1) 
39.515628999999997

>  <s_epik_cmdline>  (1) 
J2VwaWtfcHl0aG9uJywgJy1waHQnLCAnMS4wJywgJy1waCcsICc3LjQnLCAnLXRuJywgJzgnLCAnLW1hJywgJzUwMCcsICctaW1hZScsICc8aW5maWxlLm1hZT4nLCAnLW9tYWUnLCAnPG91dGZpbGUubWFlPic=

>  <s_epik_input>  (1) 
W0NIM11PYzFuW2NIXWMobzEpW0NASF0oW0NIM10pW0NASF0oW0NIMl1bT0hdKVtDQF0yKFtPSF0pW0NASF0oRilbQ0gyXU4oW0NIMl0yKVtDSDJdW0NASF0oW0NIMl0zKUMoRikoRilbQ0gyXVtDSDJdW0NASF0oW0NIMl1bQ0gyXTQpT1tDQEBIXTM0

>  <s_glide_docking_method>  (1) 
confgen

>  <s_i_glide_gridfile>  (1) 
gpcr_drd2_6luq_protein_autoprepared_prepared

>  <s_lp_Force_Field>  (1) 
S-OPLS

>  <s_lp_Variant>  (1) 
DiffSBDD_25_num_sample_100-1

>  <s_m_source_file>  (1) 
generated__ligand_DiffSBDD_2026-05-06_prepared.sdf

>  <GenAI_Model>  (1) 
DiffSBDD

>  <Protein>  (1) 
generic_title2

$$$$
DiffSBDD_63_num_sample_100
     RDKit          3D

  0  0  0  0  0  0  0  0  0  0999 V3000
M  V30 BEGIN CTAB
M  V30 COUNTS 56 56 0 0 1
M  V30 BEGIN ATOM
M  V30 1 C 7.233817 4.710683 -16.128404 0
M  V30 2 C 10.913372 6.798016 -7.668878 0
M  V30 3 C 13.149241 8.398263 -8.447104 0
M  V30 4 C 9.034863 6.513835 -10.691604 0
M  V30 5 C 6.956422 1.827261 -13.265091 0
M  V30 6 C 10.905263 7.360767 -9.073388 0
M  V30 7 C 10.679432 7.881974 -6.608791 0 CFG=1
M  V30 8 C 6.120374 3.078689 -12.937033 0
M  V30 9 C 6.818632 4.398619 -13.238958 0
M  V30 10 C 5.439818 6.449777 -16.340572 0
M  V30 11 C 12.907419 9.046471 -7.091666 0
M  V30 12 C 8.075388 4.653670 -12.817521 0
M  V30 13 C 5.591483 7.908512 -15.891592 0
M  V30 14 C 6.194093 0.526709 -12.981134 0
M  V30 15 C 11.943437 8.414407 -9.399977 0
M  V30 16 N 8.764093 6.894603 -11.988505 0
M  V30 17 O 10.234838 7.232554 -5.426243 0
M  V30 18 C 6.001027 5.415837 -14.037819 0
M  V30 19 C 6.290729 5.472726 -15.540889 0
M  V30 20 C 11.834837 8.832424 -6.301144 0
M  V30 21 C 8.826863 5.946738 -13.087834 0
M  V30 22 C 11.205717 6.511606 -4.675252 0
M  V30 23 C 10.017512 6.969295 -9.956319 0
M  V30 24 H 7.833775 4.018472 -15.557941 0
M  V30 25 H 7.414509 4.773250 -17.191159 0
M  V30 26 H 10.115959 6.055591 -7.585159 0
M  V30 27 H 11.834825 6.252129 -7.478663 0
M  V30 28 H 13.572743 7.406306 -8.320888 0
M  V30 29 H 13.946859 8.969301 -8.915868 0
M  V30 30 H 8.332135 5.784407 -10.314226 0
M  V30 31 H 7.883543 1.818817 -12.691737 0
M  V30 32 H 7.244890 1.848812 -14.316622 0
M  V30 33 H 9.838704 8.500945 -6.926057 0
M  V30 34 H 5.184406 3.028462 -13.491656 0
M  V30 35 H 5.845237 3.081285 -11.881877 0
M  V30 36 H 4.392305 6.156874 -16.275790 0
M  V30 37 H 5.707495 6.376771 -17.395231 0
M  V30 38 H 13.671559 9.733040 -6.751618 0
M  V30 39 H 8.606063 3.905999 -12.246942 0
M  V30 40 H 5.047696 8.569304 -16.564269 0
M  V30 41 H 6.634835 8.222972 -15.891410 0
M  V30 42 H 5.188002 8.066413 -14.891618 0
M  V30 43 H 6.789265 -0.343479 -13.258508 0
M  V30 44 H 5.263948 0.478615 -13.548238 0
M  V30 45 H 5.946454 0.434811 -11.923237 0
M  V30 46 H 11.471789 9.397785 -9.383781 0
M  V30 47 H 12.288867 8.258012 -10.423055 0
M  V30 48 H 7.869745 7.367681 -12.014671 0
M  V30 49 H 4.937844 5.226699 -13.890914 0
M  V30 50 H 6.174571 6.402475 -13.609136 0
M  V30 51 H 11.771496 9.357185 -5.359282 0
M  V30 52 H 8.427923 6.432384 -13.975877 0
M  V30 53 H 9.869160 5.709739 -13.305615 0
M  V30 54 H 10.705442 5.986342 -3.862811 0
M  V30 55 H 11.944717 7.172850 -4.223419 0
M  V30 56 H 11.728847 5.769296 -5.275301 0
M  V30 END ATOM
M  V30 BEGIN BOND
M  V30 1 1 6 2
M  V30 2 1 7 2
M  V30 3 1 8 5
M  V30 4 1 9 8
M  V30 5 1 11 3
M  V30 6 2 12 9
M  V30 7 1 13 10
M  V30 8 1 14 5
M  V30 9 1 15 3
M  V30 10 1 15 6
M  V30 11 1 16 4
M  V30 12 1 17 7
M  V30 13 1 18 9
M  V30 14 2 19 1
M  V30 15 1 19 10
M  V30 16 1 19 18
M  V30 17 1 20 7
M  V30 18 2 20 11
M  V30 19 1 21 12
M  V30 20 1 21 16
M  V30 21 1 22 17
M  V30 22 2 23 4
M  V30 23 2 23 6
M  V30 24 1 24 1
M  V30 25 1 25 1
M  V30 26 1 26 2
M  V30 27 1 27 2
M  V30 28 1 28 3
M  V30 29 1 29 3
M  V30 30 1 30 4
M  V30 31 1 31 5
M  V30 32 1 32 5
M  V30 33 1 7 33 CFG=3
M  V30 34 1 34 8
M  V30 35 1 35 8
M  V30 36 1 36 10
M  V30 37 1 37 10
M  V30 38 1 38 11
M  V30 39 1 39 12
M  V30 40 1 40 13
M  V30 41 1 41 13
M  V30 42 1 42 13
M  V30 43 1 43 14
M  V30 44 1 44 14
M  V30 45 1 45 14
M  V30 46 1 46 15
M  V30 47 1 47 15
M  V30 48 1 48 16
M  V30 49 1 49 18
M  V30 50 1 50 18
M  V30 51 1 51 20
M  V30 52 1 52 21
M  V30 53 1 53 21
M  V30 54 1 54 22
M  V30 55 1 55 22
M  V30 56 1 56 22
M  V30 END BOND
M  V30 END CTAB
M  END
>  <i_epik_Tot_Q>  (1) 
0

>  <i_epik_Tot_abs_Q>  (1) 
0

>  <i_i_glide_confnum>  (1) 
390

>  <i_i_glide_lignum>  (1) 
126

>  <i_i_glide_posenum>  (1) 
45

>  <i_i_glide_rotatable_bonds>  (1) 
9

>  <i_lp_mmshare_version>  (1) 
72125

>  <i_m_source_file_index>  (1) 
64

>  <i_f3d_flags>  (1) 
0

>  <num_sample>  (1) 
100

>  <b_lp_Chiralities_Consistent>  (1) 
1

>  <r_epik_Charging_Adjusted_Penalty>  (1) 
0

>  <r_epik_Ionization_Penalty>  (1) 
2.3151810028890752e-06

>  <r_epik_Ionization_Penalty_Charging>  (1) 
0

>  <r_epik_Ionization_Penalty_Neutral>  (1) 
2.3151810028890752e-06

>  <r_epik_State_Penalty>  (1) 
-0

>  <r_glide_ring_energy>  (1) 
0

>  <r_i_docking_score>  (1) 
-5.4713322311177883

>  <r_i_glide_ecoul>  (1) 
-0.5902304946617335

>  <r_i_glide_eff_state_penalty>  (1) 
-0

>  <r_i_glide_einternal>  (1) 
6.4765161906338182

>  <r_i_glide_emodel>  (1) 
-36.682285236790399

>  <r_i_glide_emodel_strain>  (1) 
1.2243869161432031

>  <r_i_glide_energy>  (1) 
-30.59312004499839

>  <r_i_glide_erotb>  (1) 
1.3082352225513891

>  <r_i_glide_esite>  (1) 
-0.04066222084440442

>  <r_i_glide_evdw>  (1) 
-30.002889550336658

>  <r_i_glide_gscore>  (1) 
-5.4713322311177883

>  <r_i_glide_gscore_strain>  (1) 
0

>  <r_i_glide_hbond>  (1) 
0

>  <r_i_glide_ligand_efficiency>  (1) 
-0.23788401004859949

>  <r_i_glide_ligand_efficiency_ln>  (1) 
-1.3230177447820481

>  <r_i_glide_ligand_efficiency_sa>  (1) 
-0.67651048121189017

>  <r_i_glide_lipo>  (1) 
-2.9922938629268616

>  <r_i_glide_metal>  (1) 
-0

>  <r_i_glide_rewards>  (1) 
-2.1579323181818189

>  <r_lp_Energy>  (1) 
-11.675697

>  <r_lp_tautomer_probability>  (1) 
1

>  <s_epik_cmdline>  (1) 
J2VwaWtfcHl0aG9uJywgJy1waHQnLCAnMS4wJywgJy1waCcsICc3LjQnLCAnLXRuJywgJzgnLCAnLW1hJywgJzUwMCcsICctaW1hZScsICc8aW5maWxlLm1hZT4nLCAnLW9tYWUnLCAnPG91dGZpbGUubWFlPic=

>  <s_epik_input>  (1) 
W0NIM11bQ0gyXUMoPVtDSDJdKVtDSDJdQyhcW0NIMl1bQ0gyXVtDSDNdKT1bQ0hdL1tDSDJdW05IXVtDSF09Qz1DMVtDSDJdW0NAQEhdKE9bQ0gzXSlbQ0hdPVtDSF1bQ0gyXVtDSDJdMQ==

>  <s_glide_docking_method>  (1) 
confgen

>  <s_i_glide_gridfile>  (1) 
gpcr_drd2_6luq_protein_autoprepared_prepared

>  <s_lp_Force_Field>  (1) 
S-OPLS

>  <s_lp_Variant>  (1) 
DiffSBDD_63_num_sample_100-2

>  <s_m_source_file>  (1) 
generated__ligand_DiffSBDD_2026-05-06_prepared.sdf

>  <GenAI_Model>  (1) 
DiffSBDD

>  <Protein>  (1) 
generic_title2

$$$$
DiffSBDD_83_num_sample_100
     RDKit          3D

  0  0  0  0  0  0  0  0  0  0999 V3000
M  V30 BEGIN CTAB
M  V30 COUNTS 48 52 0 0 1
M  V30 BEGIN ATOM
M  V30 1 C 10.188463 7.436639 -9.981025 0
M  V30 2 C 5.317569 8.291840 -16.267741 0
M  V30 3 C 6.653415 6.246434 -16.254872 0 CFG=1
M  V30 4 C 6.125854 5.209764 -12.574453 0
M  V30 5 C 5.978976 6.132310 -14.900862 0 CFG=2
M  V30 6 N 7.578250 5.369300 -10.273794 0
M  V30 7 C 5.895790 6.297189 -17.563604 0
M  V30 8 C 11.131862 8.152864 -7.841250 0
M  V30 9 C 6.310408 7.485323 -15.474405 0 CFG=2
M  V30 10 C 6.690323 5.626954 -13.699924 0
M  V30 11 C 11.865159 9.202686 -7.007594 0
M  V30 12 C 9.058985 5.159890 -10.233458 0 CFG=1
M  V30 13 C 10.044802 5.972136 -8.033255 0
M  V30 14 C 8.046806 5.537915 -13.537590 0
M  V30 15 C 10.864136 8.400230 -9.204969 0
M  V30 16 C 4.804740 7.360801 -17.378299 0
M  V30 17 C 9.618631 4.946579 -11.693477 0
M  V30 18 C 10.719435 6.935590 -7.257011 0
M  V30 19 C 8.310043 5.054198 -12.337957 0
M  V30 20 C 11.265498 9.480417 -5.617735 0
M  V30 21 O 11.834839 8.649279 -4.628295 0
M  V30 22 C 7.118004 4.679660 -11.469840 0 CFG=2
M  V30 23 C 9.781977 6.216506 -9.397184 0
M  V30 24 H 9.982685 7.634012 -11.022622 0
M  V30 25 H 4.512683 8.651624 -15.626555 0
M  V30 26 H 5.834821 9.153551 -16.691312 0
M  V30 27 H 7.695181 5.939944 -16.323494 0
M  V30 28 H 5.058925 5.180931 -12.413767 0
M  V30 29 H 4.942416 5.805610 -14.920761 0
M  V30 30 H 7.338566 6.363432 -10.181285 0
M  V30 31 H 5.476235 5.327948 -17.824527 0
M  V30 32 H 6.585808 6.590653 -18.355749 0
M  V30 33 H 7.113778 8.045701 -15.000462 0
M  V30 34 H 11.834843 10.137297 -7.561532 0
M  V30 35 H 12.926051 8.965155 -6.939215 0
M  V30 36 H 9.200320 4.207431 -9.722445 0
M  V30 37 H 9.730482 5.042730 -7.583073 0
M  V30 38 H 8.783986 5.876398 -14.246776 0
M  V30 39 H 11.176147 9.330322 -9.656108 0
M  V30 40 H 3.883214 6.877173 -17.052008 0
M  V30 41 H 4.581151 7.892834 -18.302400 0
M  V30 42 H 10.308476 5.705260 -12.060373 0
M  V30 43 H 10.037202 3.953610 -11.850020 0
M  V30 44 H 10.918801 6.737989 -6.216604 0
M  V30 45 H 10.183345 9.369322 -5.629926 0
M  V30 46 H 11.480750 10.509914 -5.328674 0
M  V30 47 H 11.570076 7.757603 -4.797470 0
M  V30 48 H 7.049920 3.603401 -11.359163 0
M  V30 END ATOM
M  V30 BEGIN BOND
M  V30 1 1 5 3
M  V30 2 1 7 3
M  V30 3 1 9 2
M  V30 4 1 9 3
M  V30 5 1 9 5
M  V30 6 2 10 4
M  V30 7 1 10 5
M  V30 8 1 11 8
M  V30 9 1 12 6
M  V30 10 1 14 10
M  V30 11 2 15 1
M  V30 12 1 15 8
M  V30 13 1 16 2
M  V30 14 1 16 7
M  V30 15 1 17 12
M  V30 16 2 18 8
M  V30 17 1 18 13
M  V30 18 2 19 14
M  V30 19 1 19 17
M  V30 20 1 20 11
M  V30 21 1 21 20
M  V30 22 1 22 4
M  V30 23 1 22 6
M  V30 24 1 22 19
M  V30 25 1 23 1
M  V30 26 1 23 12
M  V30 27 2 23 13
M  V30 28 1 24 1
M  V30 29 1 25 2
M  V30 30 1 26 2
M  V30 31 1 3 27 CFG=3
M  V30 32 1 28 4
M  V30 33 1 5 29 CFG=3
M  V30 34 1 30 6
M  V30 35 1 31 7
M  V30 36 1 32 7
M  V30 37 1 9 33 CFG=1
M  V30 38 1 34 11
M  V30 39 1 35 11
M  V30 40 1 12 36 CFG=1
M  V30 41 1 37 13
M  V30 42 1 38 14
M  V30 43 1 39 15
M  V30 44 1 40 16
M  V30 45 1 41 16
M  V30 46 1 42 17
M  V30 47 1 43 17
M  V30 48 1 44 18
M  V30 49 1 45 20
M  V30 50 1 46 20
M  V30 51 1 47 21
M  V30 52 1 22 48 CFG=1
M  V30 END BOND
M  V30 END CTAB
M  END
>  <i_epik_Tot_Q>  (1) 
0

>  <i_epik_Tot_abs_Q>  (1) 
0

>  <i_i_glide_confnum>  (1) 
153

>  <i_i_glide_lignum>  (1) 
171

>  <i_i_glide_posenum>  (1) 
52

>  <i_i_glide_rotatable_bonds>  (1) 
5

>  <i_lp_mmshare_version>  (1) 
72125

>  <i_m_source_file_index>  (1) 
84

>  <i_f3d_flags>  (1) 
0

>  <num_sample>  (1) 
100

>  <b_lp_Chiralities_Consistent>  (1) 
1

>  <r_epik_Charging_Adjusted_Penalty>  (1) 
0.79484472859609101

>  <r_epik_Ionization_Penalty>  (1) 
0.79484480768617471

>  <r_epik_Ionization_Penalty_Charging>  (1) 
0

>  <r_epik_Ionization_Penalty_Neutral>  (1) 
0.79484480768617471

>  <r_epik_State_Penalty>  (1) 
0.79484472859609101

>  <r_glide_ring_energy>  (1) 
0

>  <r_i_docking_score>  (1) 
-5.4692279537033635

>  <r_i_glide_ecoul>  (1) 
-2.0900125945035271

>  <r_i_glide_eff_state_penalty>  (1) 
0.79484472859609101

>  <r_i_glide_einternal>  (1) 
2.5563893617319708

>  <r_i_glide_emodel>  (1) 
-43.532580254966383

>  <r_i_glide_emodel_strain>  (1) 
1.6067308819320658

>  <r_i_glide_energy>  (1) 
-34.637662880726218

>  <r_i_glide_erotb>  (1) 
0.7823539513187745

>  <r_i_glide_esite>  (1) 
0

>  <r_i_glide_evdw>  (1) 
-32.547650286222691

>  <r_i_glide_gscore>  (1) 
-6.2640726822994548

>  <r_i_glide_gscore_strain>  (1) 
0

>  <r_i_glide_hbond>  (1) 
-0.16

>  <r_i_glide_ligand_efficiency>  (1) 
-0.23779251972623319

>  <r_i_glide_ligand_efficiency_ln>  (1) 
-1.3225089114227075

>  <r_i_glide_ligand_efficiency_sa>  (1) 
-0.67625029490513666

>  <r_i_glide_lipo>  (1) 
-2.7326297301315638

>  <r_i_glide_metal>  (1) 
-0

>  <r_i_glide_rewards>  (1) 
-2.2129125000000012

>  <r_lp_Energy>  (1) 
31.713768999999999

>  <s_epik_cmdline>  (1) 
J2VwaWtfcHl0aG9uJywgJy1waHQnLCAnMS4wJywgJy1waCcsICc3LjQnLCAnLXRuJywgJzgnLCAnLW1hJywgJzUwMCcsICctaW1hZScsICc8aW5maWxlLm1hZT4nLCAnLW9tYWUnLCAnPG91dGZpbGUubWFlPic=

>  <s_epik_input>  (1) 
W09IXVtDSDJdW0NIMl1jMVtjSF1bY0hdYyhbY0hdW2NIXTEpW0NASF0oW0NIMl0yKVtOSF1bQ0BIXShDMjMpW0NIXT1DKFtDSF09MylbQ0BIXTRbQ0BASF0oW0NAQEhdNDUpW0NIMl1bQ0gyXVtDSDJdNQ==

>  <s_glide_docking_method>  (1) 
confgen

>  <s_i_glide_gridfile>  (1) 
gpcr_drd2_6luq_protein_autoprepared_prepared

>  <s_lp_Force_Field>  (1) 
S-OPLS

>  <s_lp_Variant>  (1) 
DiffSBDD_83_num_sample_100-3

>  <s_m_source_file>  (1) 
generated__ligand_DiffSBDD_2026-05-06_prepared.sdf

>  <GenAI_Model>  (1) 
DiffSBDD

>  <Protein>  (1) 
generic_title2

$$$$
DiffSBDD_43_num_sample_100
     RDKit          3D

  0  0  0  0  0  0  0  0  0  0999 V3000
M  V30 BEGIN CTAB
M  V30 COUNTS 37 39 0 0 1
M  V30 BEGIN ATOM
M  V30 1 C 11.975746 8.916670 -4.783997 0
M  V30 2 N 8.065053 4.569302 -10.379315 0
M  V30 3 C 9.554510 6.296752 -11.212309 0
M  V30 4 C 11.077217 8.057682 -9.715106 0
M  V30 5 N 8.610069 5.263601 -9.252144 0
M  V30 6 C 11.703067 6.841823 -3.503153 0
M  V30 7 C 6.613706 4.376693 -10.350324 0
M  V30 8 C 11.070563 8.006546 -6.883865 0
M  V30 9 C 12.099608 8.329032 -3.376072 0
M  V30 10 F 7.634967 5.654811 -12.405520 0
M  V30 11 C 10.298308 7.060734 -7.617369 0
M  V30 12 C 8.605394 5.172043 -11.624660 0 CFG=2
M  V30 13 N 11.070437 7.994404 -5.455877 0
M  V30 14 N 9.504442 6.169297 -9.772904 0
M  V30 15 C 10.292619 7.092587 -9.039456 0
M  V30 16 C 11.830009 8.969288 -7.590223 0
M  V30 17 C 10.927373 6.689986 -4.835075 0
M  V30 18 C 11.835051 8.981851 -8.993485 0
M  V30 19 H 12.967114 8.969312 -5.228416 0
M  V30 20 H 11.559805 9.924663 -4.755906 0
M  V30 21 H 9.166210 7.265331 -11.530881 0
M  V30 22 H 10.553594 6.142678 -11.620851 0
M  V30 23 H 11.092502 8.097390 -10.791209 0
M  V30 24 H 7.856766 5.793191 -8.809092 0
M  V30 25 H 12.616535 6.244891 -3.491680 0
M  V30 26 H 11.106227 6.509816 -2.653280 0
M  V30 27 H 6.098591 5.337189 -10.292991 0
M  V30 28 H 6.286768 3.848146 -11.246015 0
M  V30 29 H 6.340185 3.769412 -9.491667 0
M  V30 30 H 13.106132 8.449440 -2.976274 0
M  V30 31 H 11.434866 8.851222 -2.690562 0
M  V30 32 H 9.703445 6.326122 -7.094710 0
M  V30 33 H 9.124157 4.402755 -12.197478 0
M  V30 34 H 12.413158 9.701090 -7.059595 0
M  V30 35 H 9.874404 6.463444 -4.665967 0
M  V30 36 H 11.362624 5.892025 -5.438699 0
M  V30 37 H 12.421139 9.718029 -9.521961 0
M  V30 END ATOM
M  V30 BEGIN BOND
M  V30 1 1 5 2
M  V30 2 1 7 2
M  V30 3 1 9 1
M  V30 4 1 9 6
M  V30 5 2 11 8
M  V30 6 1 12 2
M  V30 7 1 12 3
M  V30 8 1 12 10
M  V30 9 1 13 1
M  V30 10 1 13 8
M  V30 11 1 14 3
M  V30 12 1 14 5
M  V30 13 2 15 4
M  V30 14 1 15 11
M  V30 15 1 15 14
M  V30 16 1 16 8
M  V30 17 1 17 6
M  V30 18 1 17 13
M  V30 19 1 18 4
M  V30 20 2 18 16
M  V30 21 1 19 1
M  V30 22 1 20 1
M  V30 23 1 21 3
M  V30 24 1 22 3
M  V30 25 1 23 4
M  V30 26 1 24 5
M  V30 27 1 25 6
M  V30 28 1 26 6
M  V30 29 1 27 7
M  V30 30 1 28 7
M  V30 31 1 29 7
M  V30 32 1 30 9
M  V30 33 1 31 9
M  V30 34 1 32 11
M  V30 35 1 12 33 CFG=3
M  V30 36 1 34 16
M  V30 37 1 35 17
M  V30 38 1 36 17
M  V30 39 1 37 18
M  V30 END BOND
M  V30 END CTAB
M  END
>  <i_epik_Tot_Q>  (1) 
0

>  <i_epik_Tot_abs_Q>  (1) 
0

>  <i_i_glide_confnum>  (1) 
25

>  <i_i_glide_lignum>  (1) 
75

>  <i_i_glide_posenum>  (1) 
169

>  <i_i_glide_rotatable_bonds>  (1) 
2

>  <i_lp_mmshare_version>  (1) 
72125

>  <i_m_source_file_index>  (1) 
44

>  <i_f3d_flags>  (1) 
0

>  <num_sample>  (1) 
100

>  <b_lp_Chiralities_Consistent>  (1) 
1

>  <r_epik_Charging_Adjusted_Penalty>  (1) 
0.0083505281845598599

>  <r_epik_Ionization_Penalty>  (1) 
0.0096858193437649089

>  <r_epik_Ionization_Penalty_Charging>  (1) 
0

>  <r_epik_Ionization_Penalty_Neutral>  (1) 
0.0096858193437649089

>  <r_epik_State_Penalty>  (1) 
0.0083505281845598599

>  <r_glide_ring_energy>  (1) 
1.6553189142072839

>  <r_i_docking_score>  (1) 
-5.4680670617747271

>  <r_i_glide_ecoul>  (1) 
-0.9150339869088111

>  <r_i_glide_eff_state_penalty>  (1) 
0.0083505281845598599

>  <r_i_glide_einternal>  (1) 
1.6911474518936433

>  <r_i_glide_emodel>  (1) 
-35.887051904269633

>  <r_i_glide_emodel_strain>  (1) 
0.40911853603066106

>  <r_i_glide_energy>  (1) 
-28.927724705371642

>  <r_i_glide_erotb>  (1) 
0.55876719090136395

>  <r_i_glide_esite>  (1) 
-0.19185325769410114

>  <r_i_glide_evdw>  (1) 
-28.012690718462832

>  <r_i_glide_gscore>  (1) 
-5.4764175899592873

>  <r_i_glide_gscore_strain>  (1) 
0

>  <r_i_glide_hbond>  (1) 
-0.029544133468445519

>  <r_i_glide_ligand_efficiency>  (1) 
-0.30378150343192928

>  <r_i_glide_ligand_efficiency_ln>  (1) 
-1.4055384426119084

>  <r_i_glide_ligand_efficiency_sa>  (1) 
-0.79613276083906914

>  <r_i_glide_lipo>  (1) 
-1.9632275601512852

>  <r_i_glide_metal>  (1) 
-0

>  <r_i_glide_rewards>  (1) 
-2.312670195587355

>  <r_lp_Energy>  (1) 
4.2772959999999998

>  <s_epik_cmdline>  (1) 
J2VwaWtfcHl0aG9uJywgJy1waHQnLCAnMS4wJywgJy1waCcsICc3LjQnLCAnLXRuJywgJzgnLCAnLW1hJywgJzUwMCcsICctaW1hZScsICc8aW5maWxlLm1hZT4nLCAnLW9tYWUnLCAnPG91dGZpbGUubWFlPic=

>  <s_epik_input>  (1) 
W0NIMl0xW0NIMl1bQ0gyXVtDSDJdTjFjMltjSF1jKFtjSF1bY0hdW2NIXTIpTihbQ0gyXVtDQEBIXTNGKVtOSF1OM1tDSDNd

>  <s_glide_docking_method>  (1) 
confgen

>  <s_i_glide_gridfile>  (1) 
gpcr_drd2_6luq_protein_autoprepared_prepared

>  <s_lp_Force_Field>  (1) 
S-OPLS

>  <s_lp_Variant>  (1) 
DiffSBDD_43_num_sample_100-1

>  <s_m_source_file>  (1) 
generated__ligand_DiffSBDD_2026-05-06_prepared.sdf

>  <GenAI_Model>  (1) 
DiffSBDD

>  <Protein>  (1) 
generic_title2

$$$$
DiffSBDD_44_num_sample_100
     RDKit          3D

  0  0  0  0  0  0  0  0  0  0999 V3000
M  V30 BEGIN CTAB
M  V30 COUNTS 55 57 0 0 1
M  V30 BEGIN ATOM
M  V30 1 C 6.048799 4.921328 -13.744776 0
M  V30 2 C 7.360261 4.114592 -13.957607 0 CFG=1
M  V30 3 C 12.090559 9.051300 -4.921570 0
M  V30 4 C 12.030863 7.098440 -2.904764 0
M  V30 5 C 11.427881 6.828662 -4.148115 0
M  V30 6 C 9.657020 7.531283 -11.229583 0
M  V30 7 C 7.037115 2.634588 -14.079556 0
M  V30 8 N 8.044590 4.352355 -15.240844 0
M  V30 9 C 10.612067 7.871806 -10.063801 0
M  V30 10 C 10.797194 8.320157 -7.528603 0
M  V30 11 O 11.434800 9.364914 -7.637185 0
M  V30 12 C 12.674209 8.309576 -2.684623 0
M  V30 13 N 11.982386 6.169299 -1.892279 0
M  V30 14 C 7.520671 1.985619 -15.344231 0
M  V30 15 N 10.774010 7.527691 -6.445254 0
M  V30 16 C 9.317626 6.036141 -11.290803 0
M  V30 17 O 8.987669 3.462132 -12.290665 0
M  V30 18 C 9.609066 6.385584 -8.115224 0
M  V30 19 C 7.768627 3.255252 -16.182827 0
M  V30 20 N 8.473298 5.661201 -12.404623 0
M  V30 21 C 7.989193 5.681493 -15.831179 0
M  V30 22 C 9.946630 7.803813 -8.668643 0 CFG=2
M  V30 23 C 10.047423 6.295118 -6.631491 0
M  V30 24 C 11.434808 7.812939 -5.170785 0
M  V30 25 C 8.351853 4.385454 -12.804564 0
M  V30 26 C 12.715436 9.270420 -3.687412 0
M  V30 27 O 6.413064 2.015441 -13.215666 0
M  V30 28 H 5.705010 4.825534 -12.713695 0
M  V30 29 H 6.165857 5.986912 -13.936798 0
M  V30 30 H 5.232384 4.569332 -14.364902 0
M  V30 31 H 12.130843 9.826059 -5.656370 0
M  V30 32 H 10.936233 5.879748 -4.305897 0
M  V30 33 H 8.745123 8.123967 -11.142897 0
M  V30 34 H 10.125270 7.821609 -12.170032 0
M  V30 35 H 10.991922 8.881833 -10.223131 0
M  V30 36 H 11.491741 7.229305 -10.093901 0
M  V30 37 H 13.148433 8.506342 -1.733461 0
M  V30 38 H 12.439114 6.329618 -1.008221 0
M  V30 39 H 11.538193 5.264508 -2.022409 0
M  V30 40 H 8.443072 1.437089 -15.150670 0
M  V30 41 H 6.779741 1.319435 -15.787573 0
M  V30 42 H 10.234897 5.455397 -11.326828 0
M  V30 43 H 8.757031 5.726811 -10.413503 0
M  V30 44 H 8.544087 6.168599 -8.211485 0
M  V30 45 H 10.148754 5.622469 -8.676756 0
M  V30 46 H 8.601455 3.129827 -16.875392 0
M  V30 47 H 6.886973 3.487663 -16.778602 0
M  V30 48 H 7.931818 6.380124 -12.859686 0
M  V30 49 H 8.713650 5.752103 -16.642630 0
M  V30 50 H 7.000291 5.896391 -16.236751 0
M  V30 51 H 8.232916 6.443581 -15.092318 0
M  V30 52 H 9.043710 8.414777 -8.670646 0
M  V30 53 H 10.728405 5.455177 -6.516435 0
M  V30 54 H 9.200212 6.192090 -5.951229 0
M  V30 55 H 13.229995 10.170816 -3.508269 0
M  V30 END ATOM
M  V30 BEGIN BOND
M  V30 1 1 2 1 CFG=1
M  V30 2 2 5 4
M  V30 3 1 7 2
M  V30 4 1 8 2
M  V30 5 1 9 6
M  V30 6 2 11 10
M  V30 7 1 12 4
M  V30 8 1 13 4
M  V30 9 1 14 7
M  V30 10 1 15 10
M  V30 11 1 16 6
M  V30 12 1 19 8
M  V30 13 1 19 14
M  V30 14 1 20 16
M  V30 15 1 21 8
M  V30 16 1 22 9
M  V30 17 1 22 10
M  V30 18 1 22 18
M  V30 19 1 23 15
M  V30 20 1 23 18
M  V30 21 2 24 3
M  V30 22 1 24 5
M  V30 23 1 24 15
M  V30 24 1 25 2
M  V30 25 2 25 17
M  V30 26 1 25 20
M  V30 27 1 26 3
M  V30 28 2 26 12
M  V30 29 2 27 7
M  V30 30 1 28 1
M  V30 31 1 29 1
M  V30 32 1 30 1
M  V30 33 1 31 3
M  V30 34 1 32 5
M  V30 35 1 33 6
M  V30 36 1 34 6
M  V30 37 1 35 9
M  V30 38 1 36 9
M  V30 39 1 37 12
M  V30 40 1 38 13
M  V30 41 1 39 13
M  V30 42 1 40 14
M  V30 43 1 41 14
M  V30 44 1 42 16
M  V30 45 1 43 16
M  V30 46 1 44 18
M  V30 47 1 45 18
M  V30 48 1 46 19
M  V30 49 1 47 19
M  V30 50 1 48 20
M  V30 51 1 49 21
M  V30 52 1 50 21
M  V30 53 1 51 21
M  V30 54 1 22 52 CFG=3
M  V30 55 1 53 23
M  V30 56 1 54 23
M  V30 57 1 55 26
M  V30 END BOND
M  V30 END CTAB
M  END
>  <i_epik_Tot_Q>  (1) 
0

>  <i_epik_Tot_abs_Q>  (1) 
0

>  <i_i_glide_confnum>  (1) 
248

>  <i_i_glide_lignum>  (1) 
77

>  <i_i_glide_posenum>  (1) 
162

>  <i_i_glide_rotatable_bonds>  (1) 
7

>  <i_lp_mmshare_version>  (1) 
72125

>  <i_m_source_file_index>  (1) 
45

>  <i_f3d_flags>  (1) 
0

>  <num_sample>  (1) 
100

>  <b_lp_Chiralities_Consistent>  (1) 
1

>  <r_epik_Charging_Adjusted_Penalty>  (1) 
0.38370982414574223

>  <r_epik_Ionization_Penalty>  (1) 
0.3841777034394574

>  <r_epik_Ionization_Penalty_Charging>  (1) 
0

>  <r_epik_Ionization_Penalty_Neutral>  (1) 
0.3841777034394574

>  <r_epik_State_Penalty>  (1) 
0.38370982414574223

>  <r_glide_ring_energy>  (1) 
0

>  <r_i_docking_score>  (1) 
-5.4490195487132347

>  <r_i_glide_ecoul>  (1) 
-1.9049753701568277

>  <r_i_glide_eff_state_penalty>  (1) 
0.38370982414574223

>  <r_i_glide_einternal>  (1) 
3.2225193067842532

>  <r_i_glide_emodel>  (1) 
-48.755101474452772

>  <r_i_glide_emodel_strain>  (1) 
0.3264860262330842

>  <r_i_glide_energy>  (1) 
-37.667305809626413

>  <r_i_glide_erotb>  (1) 
0.97453214498294238

>  <r_i_glide_esite>  (1) 
0

>  <r_i_glide_evdw>  (1) 
-35.762330439469586

>  <r_i_glide_gscore>  (1) 
-5.8327293728589771

>  <r_i_glide_gscore_strain>  (1) 
0

>  <r_i_glide_hbond>  (1) 
0

>  <r_i_glide_ligand_efficiency>  (1) 
-0.20181553884123091

>  <r_i_glide_ligand_efficiency_ln>  (1) 
-1.2684419168322636

>  <r_i_glide_ligand_efficiency_sa>  (1) 
-0.60544661652369292

>  <r_i_glide_lipo>  (1) 
-2.3032174791792581

>  <r_i_glide_metal>  (1) 
-0

>  <r_i_glide_rewards>  (1) 
-2.4301812111656576

>  <r_lp_Energy>  (1) 
23.583355999999998

>  <r_lp_tautomer_probability>  (1) 
0.99995000000000001

>  <s_epik_cmdline>  (1) 
J2VwaWtfcHl0aG9uJywgJy1waHQnLCAnMS4wJywgJy1waCcsICc3LjQnLCAnLXRuJywgJzgnLCAnLW1hJywgJzUwMCcsICctaW1hZScsICc8aW5maWxlLm1hZT4nLCAnLW9tYWUnLCAnPG91dGZpbGUubWFlPic=

>  <s_epik_input>  (1) 
W0NIM11OMVtDSDJdW0NIMl1DKD1PKVtDQEBdMShbQ0gzXSlDKD1PKVtOSF1bQ0gyXVtDSDJdW0NIMl1bQ0BASF0yW0NIMl1bQ0gyXU4oQzI9TyljKFtjSF1bY0hdW2NIXTMpW2NIXWMzW05IMl0=

>  <s_glide_docking_method>  (1) 
confgen

>  <s_i_glide_gridfile>  (1) 
gpcr_drd2_6luq_protein_autoprepared_prepared

>  <s_lp_Force_Field>  (1) 
S-OPLS

>  <s_lp_Variant>  (1) 
DiffSBDD_44_num_sample_100-2

>  <s_m_source_file>  (1) 
generated__ligand_DiffSBDD_2026-05-06_prepared.sdf

>  <GenAI_Model>  (1) 
DiffSBDD

>  <Protein>  (1) 
generic_title2

$$$$
DiffSBDD_27_num_sample_100
     RDKit          3D

  0  0  0  0  0  0  0  0  0  0999 V3000
M  V30 BEGIN CTAB
M  V30 COUNTS 57 57 0 0 1
M  V30 BEGIN ATOM
M  V30 1 C 7.218377 4.313380 -18.396382 0 CFG=2
M  V30 2 C 6.433383 6.936117 -12.298185 0
M  V30 3 N 7.036176 3.031438 -17.717228 0
M  V30 4 C 9.640483 8.303615 -6.725592 0
M  V30 5 C 5.831654 4.972762 -20.208329 0
M  V30 6 C 7.039956 7.206499 -14.739846 0
M  V30 7 N 7.745123 5.768881 -10.686436 0 CHG=1
M  V30 8 C 9.828660 7.864209 -10.547934 0
M  V30 9 C 10.183961 7.688447 -8.025215 0
M  V30 10 C 9.988235 6.161500 -7.930522 0
M  V30 11 C 7.858981 6.673059 -11.835318 0 CFG=2
M  V30 12 C 8.636689 7.984832 -11.527268 0
M  V30 13 C 6.185776 5.424729 -17.961808 0
M  V30 14 C 7.813467 5.005891 -15.507516 0
M  V30 15 C 6.959404 4.126378 -19.945499 0
M  V30 16 O 7.553881 3.386456 -20.726545 0
M  V30 17 C 6.090929 6.244940 -16.874545 0
M  V30 18 N 9.434957 8.265055 -9.175831 0 CHG=1
M  V30 19 N 6.918787 6.134676 -15.729302 0
M  V30 20 C 5.440916 5.643331 -19.161017 0
M  V30 21 C 5.080588 7.398360 -16.836137 0
M  V30 22 C 11.683191 8.029938 -8.135811 0
M  V30 23 C 6.074442 7.156660 -13.572136 0
M  V30 24 H 8.238975 4.667796 -18.252012 0
M  V30 25 H 5.668895 6.937623 -11.531713 0
M  V30 26 H 6.115967 2.652287 -17.901211 0
M  V30 27 H 7.694345 2.343134 -18.056893 0
M  V30 28 H 9.850053 9.368233 -6.671746 0
M  V30 29 H 8.562777 8.165576 -6.632236 0
M  V30 30 H 10.108647 7.846483 -5.852504 0
M  V30 31 H 5.376584 5.029950 -21.182163 0
M  V30 32 H 8.055886 7.201948 -14.366121 0
M  V30 33 H 6.962762 8.183637 -15.218353 0
M  V30 34 H 7.110923 5.015378 -10.903382 0
M  V30 35 H 8.637166 5.388843 -10.406548 0
M  V30 36 H 10.243929 6.859737 -10.590604 0
M  V30 37 H 10.633309 8.530677 -10.855958 0
M  V30 38 H 10.439905 5.620024 -8.758397 0
M  V30 39 H 10.446210 5.768624 -7.022139 0
M  V30 40 H 8.932197 5.898983 -7.889169 0
M  V30 41 H 8.401999 6.100714 -12.584230 0
M  V30 42 H 9.027914 8.339108 -12.481158 0
M  V30 43 H 7.963741 8.781296 -11.201859 0
M  V30 44 H 7.252732 4.073503 -15.487760 0
M  V30 45 H 8.597084 4.969682 -16.262717 0
M  V30 46 H 8.314004 5.068234 -14.543852 0
M  V30 47 H 9.493895 9.271616 -9.111409 0
M  V30 48 H 4.605424 6.324463 -19.202263 0
M  V30 49 H 5.395290 8.183847 -17.522702 0
M  V30 50 H 4.103762 7.043174 -17.161962 0
M  V30 51 H 4.892762 7.858899 -15.871863 0
M  V30 52 H 11.842178 9.108281 -8.185854 0
M  V30 53 H 12.234258 7.664482 -7.269384 0
M  V30 54 H 12.151448 7.590951 -9.017121 0
M  V30 55 H 5.036389 7.319195 -13.799445 0
M  V30 56 H 8.436211 8.037162 -9.091709 0
M  V30 57 H 7.346129 6.340254 -9.935060 0
M  V30 END ATOM
M  V30 BEGIN BOND
M  V30 1 1 3 1
M  V30 2 1 9 4
M  V30 3 1 10 9
M  V30 4 1 11 2
M  V30 5 1 11 7
M  V30 6 1 12 8
M  V30 7 1 12 11
M  V30 8 1 13 1
M  V30 9 1 15 1
M  V30 10 1 15 5
M  V30 11 2 16 15
M  V30 12 2 17 13
M  V30 13 1 18 8
M  V30 14 1 18 9
M  V30 15 1 19 6
M  V30 16 1 19 14
M  V30 17 1 19 17
M  V30 18 2 20 5
M  V30 19 1 20 13
M  V30 20 1 21 17
M  V30 21 1 22 9
M  V30 22 2 23 2
M  V30 23 1 23 6
M  V30 24 1 1 24 CFG=3
M  V30 25 1 25 2
M  V30 26 1 26 3
M  V30 27 1 27 3
M  V30 28 1 28 4
M  V30 29 1 29 4
M  V30 30 1 30 4
M  V30 31 1 31 5
M  V30 32 1 32 6
M  V30 33 1 33 6
M  V30 34 1 34 7
M  V30 35 1 35 7
M  V30 36 1 36 8
M  V30 37 1 37 8
M  V30 38 1 38 10
M  V30 39 1 39 10
M  V30 40 1 40 10
M  V30 41 1 11 41 CFG=3
M  V30 42 1 42 12
M  V30 43 1 43 12
M  V30 44 1 44 14
M  V30 45 1 45 14
M  V30 46 1 46 14
M  V30 47 1 47 18
M  V30 48 1 48 20
M  V30 49 1 49 21
M  V30 50 1 50 21
M  V30 51 1 51 21
M  V30 52 1 52 22
M  V30 53 1 53 22
M  V30 54 1 54 22
M  V30 55 1 55 23
M  V30 56 1 56 18
M  V30 57 1 57 7
M  V30 END BOND
M  V30 END CTAB
M  END
>  <i_epik_Tot_Q>  (1) 
2

>  <i_epik_Tot_abs_Q>  (1) 
2

>  <i_i_glide_confnum>  (1) 
366

>  <i_i_glide_lignum>  (1) 
46

>  <i_i_glide_posenum>  (1) 
146

>  <i_i_glide_rotatable_bonds>  (1) 
8

>  <i_lp_mmshare_version>  (1) 
72125

>  <i_m_source_file_index>  (1) 
28

>  <i_f3d_flags>  (1) 
0

>  <num_sample>  (1) 
100

>  <b_lp_Chiralities_Consistent>  (1) 
1

>  <r_epik_Charging_Adjusted_Penalty>  (1) 
0.47954930221194114

>  <r_epik_Ionization_Penalty>  (1) 
0.082650424812652987

>  <r_epik_Ionization_Penalty_Charging>  (1) 
0.068869463259337155

>  <r_epik_Ionization_Penalty_Neutral>  (1) 
0.013780961553315832

>  <r_epik_State_Penalty>  (1) 
0.41067983895260396

>  <r_glide_ring_energy>  (1) 
0

>  <r_i_docking_score>  (1) 
-5.4490159086599999

>  <r_i_glide_ecoul>  (1) 
-12.739245754589644

>  <r_i_glide_eff_state_penalty>  (1) 
0.41067983895260396

>  <r_i_glide_einternal>  (1) 
9.660091470012409

>  <r_i_glide_emodel>  (1) 
-50.934877069271117

>  <r_i_glide_emodel_strain>  (1) 
1.307881511262309

>  <r_i_glide_energy>  (1) 
-35.025358360908918

>  <r_i_glide_erotb>  (1) 
1.2586724494590871

>  <r_i_glide_esite>  (1) 
-0.20000000000000001

>  <r_i_glide_evdw>  (1) 
-22.286112606319271

>  <r_i_glide_gscore>  (1) 
-5.8596957476126041

>  <r_i_glide_gscore_strain>  (1) 
0

>  <r_i_glide_hbond>  (1) 
-0.3872286377231231

>  <r_i_glide_ligand_efficiency>  (1) 
-0.23691373515913042

>  <r_i_glide_ligand_efficiency_ln>  (1) 
-1.3176214556585306

>  <r_i_glide_ligand_efficiency_sa>  (1) 
-0.67375114849234996

>  <r_i_glide_lipo>  (1) 
-1.4856009460800061

>  <r_i_glide_metal>  (1) 
-0

>  <r_i_glide_rewards>  (1) 
-2.0203461197641519

>  <r_lp_Energy>  (1) 
29.545608999999999

>  <r_lp_tautomer_probability>  (1) 
0.5

>  <s_epik_cmdline>  (1) 
J2VwaWtfcHl0aG9uJywgJy1waHQnLCAnMS4wJywgJy1waCcsICc3LjQnLCAnLXRuJywgJzgnLCAnLW1hJywgJzUwMCcsICctaW1hZScsICc8aW5maWxlLm1hZT4nLCAnLW9tYWUnLCAnPG91dGZpbGUubWFlPic=

>  <s_epik_input>  (1) 
Tz1DMVtDSF09W0NIXUMoXFtDQEhdMVtOSDJdKT1DKFtDSDNdKVxOKFtDSDNdKVtDSDJdL1tDSF09W0NIXVxbQ0BIXShbTkgyXSlbQ0gyXVtDSDJdW05IXUMoW0NIM10pKFtDSDNdKVtDSDNd

>  <s_glide_docking_method>  (1) 
confgen

>  <s_i_glide_gridfile>  (1) 
gpcr_drd2_6luq_protein_autoprepared_prepared

>  <s_lp_Force_Field>  (1) 
S-OPLS

>  <s_lp_Variant>  (1) 
DiffSBDD_27_num_sample_100-4

>  <s_m_source_file>  (1) 
generated__ligand_DiffSBDD_2026-05-06_prepared.sdf

>  <GenAI_Model>  (1) 
DiffSBDD

>  <Protein>  (1) 
generic_title2

$$$$
DiffSBDD_20_num_sample_100
     RDKit          3D

  0  0  0  0  0  0  0  0  0  0999 V3000
M  V30 BEGIN CTAB
M  V30 COUNTS 52 53 0 0 1
M  V30 BEGIN ATOM
M  V30 1 C 11.891135 8.969451 -4.086304 0
M  V30 2 C 6.630571 4.595122 -11.843678 0 CFG=2
M  V30 3 C 9.822222 7.389578 -6.177029 0
M  V30 4 C 12.234828 9.214374 -2.747115 0
M  V30 5 C 11.693448 7.648484 -4.527594 0
M  V30 6 C 6.669634 2.627712 -13.434956 0
M  V30 7 C 11.336352 7.380096 -5.966649 0
M  V30 8 C 9.885558 8.014575 -8.666474 0
M  V30 9 C 12.386560 8.145201 -1.852687 0
M  V30 10 C 8.887706 5.540545 -11.000471 0
M  V30 11 S 9.669412 7.151235 -11.330848 0
M  V30 12 C 11.834829 6.576661 -3.627846 0
M  V30 13 C 5.813560 5.813218 -11.391587 0
M  V30 14 C 8.859889 3.644741 -12.638490 0
M  V30 15 O 8.974109 4.969317 -9.915496 0
M  V30 16 C 9.434804 6.992423 -7.599174 0
M  V30 17 C 8.115946 4.919020 -12.176736 0 CFG=1
M  V30 18 C 10.678412 7.374776 -9.820257 0 CFG=1
M  V30 19 C 12.185181 6.824080 -2.291667 0
M  V30 20 C 11.948831 8.175231 -10.134912 0
M  V30 21 C 5.951876 3.929424 -13.055398 0
M  V30 22 C 8.137386 2.899537 -13.771220 0
M  V30 23 H 11.778693 9.793840 -4.775235 0
M  V30 24 H 6.609444 3.879221 -11.019961 0
M  V30 25 H 9.392003 6.661479 -5.491702 0
M  V30 26 H 9.395999 8.360377 -5.923008 0
M  V30 27 H 12.380829 10.219951 -2.404063 0
M  V30 28 H 6.190855 2.156028 -14.291498 0
M  V30 29 H 6.602819 1.914048 -12.612744 0
M  V30 30 H 11.833203 8.121611 -6.591757 0
M  V30 31 H 11.748071 6.412682 -6.259292 0
M  V30 32 H 9.034842 8.568010 -9.056024 0
M  V30 33 H 10.490841 8.789578 -8.198997 0
M  V30 34 H 12.655272 8.338573 -0.825504 0
M  V30 35 H 11.680894 5.565272 -3.966913 0
M  V30 36 H 5.871825 6.634971 -12.106086 0
M  V30 37 H 4.764487 5.558091 -11.249190 0
M  V30 38 H 6.166816 6.169289 -10.429532 0
M  V30 39 H 9.858073 3.913753 -12.976735 0
M  V30 40 H 9.003915 2.966503 -11.797207 0
M  V30 41 H 9.856998 6.004293 -7.775170 0
M  V30 42 H 8.359778 6.842802 -7.662764 0
M  V30 43 H 8.130689 5.636408 -12.998201 0
M  V30 44 H 11.034833 6.406213 -9.491662 0
M  V30 45 H 12.298701 6.000471 -1.601613 0
M  V30 46 H 12.658367 8.114850 -9.308804 0
M  V30 47 H 12.446776 7.790711 -11.024573 0
M  V30 48 H 11.730108 9.230176 -10.291667 0
M  V30 49 H 5.955353 4.612365 -13.905985 0
M  V30 50 H 4.903700 3.731118 -12.836139 0
M  V30 51 H 8.198735 3.484152 -14.689929 0
M  V30 52 H 8.634825 1.948951 -13.966147 0
M  V30 END ATOM
M  V30 BEGIN BOND
M  V30 1 1 4 1
M  V30 2 2 5 1
M  V30 3 1 7 3
M  V30 4 1 7 5
M  V30 5 2 9 4
M  V30 6 1 11 10
M  V30 7 1 12 5
M  V30 8 1 13 2
M  V30 9 2 15 10
M  V30 10 1 16 3
M  V30 11 1 16 8
M  V30 12 1 17 2
M  V30 13 1 17 10
M  V30 14 1 17 14
M  V30 15 1 18 8
M  V30 16 1 18 11
M  V30 17 1 19 9
M  V30 18 2 19 12
M  V30 19 1 20 18
M  V30 20 1 21 2
M  V30 21 1 21 6
M  V30 22 1 22 6
M  V30 23 1 22 14
M  V30 24 1 23 1
M  V30 25 1 2 24 CFG=1
M  V30 26 1 25 3
M  V30 27 1 26 3
M  V30 28 1 27 4
M  V30 29 1 28 6
M  V30 30 1 29 6
M  V30 31 1 30 7
M  V30 32 1 31 7
M  V30 33 1 32 8
M  V30 34 1 33 8
M  V30 35 1 34 9
M  V30 36 1 35 12
M  V30 37 1 36 13
M  V30 38 1 37 13
M  V30 39 1 38 13
M  V30 40 1 39 14
M  V30 41 1 40 14
M  V30 42 1 41 16
M  V30 43 1 42 16
M  V30 44 1 17 43 CFG=3
M  V30 45 1 18 44 CFG=1
M  V30 46 1 45 19
M  V30 47 1 46 20
M  V30 48 1 47 20
M  V30 49 1 48 20
M  V30 50 1 49 21
M  V30 51 1 50 21
M  V30 52 1 51 22
M  V30 53 1 52 22
M  V30 END BOND
M  V30 END CTAB
M  END
>  <i_epik_Tot_Q>  (1) 
0

>  <i_epik_Tot_abs_Q>  (1) 
0

>  <i_i_glide_confnum>  (1) 
7

>  <i_i_glide_lignum>  (1) 
32

>  <i_i_glide_posenum>  (1) 
241

>  <i_i_glide_rotatable_bonds>  (1) 
8

>  <i_lp_mmshare_version>  (1) 
72125

>  <i_m_source_file_index>  (1) 
21

>  <i_f3d_flags>  (1) 
0

>  <num_sample>  (1) 
100

>  <b_lp_Chiralities_Consistent>  (1) 
1

>  <r_epik_Charging_Adjusted_Penalty>  (1) 
0

>  <r_epik_Ionization_Penalty>  (1) 
0

>  <r_epik_Ionization_Penalty_Charging>  (1) 
0

>  <r_epik_Ionization_Penalty_Neutral>  (1) 
0

>  <r_epik_State_Penalty>  (1) 
-0

>  <r_glide_ring_energy>  (1) 
0

>  <r_i_docking_score>  (1) 
-5.4429663033465951

>  <r_i_glide_ecoul>  (1) 
-1.0785950318778692

>  <r_i_glide_eff_state_penalty>  (1) 
-0

>  <r_i_glide_einternal>  (1) 
7.2537280947253144

>  <r_i_glide_emodel>  (1) 
-40.673142171646255

>  <r_i_glide_emodel_strain>  (1) 
1.2722999380097306

>  <r_i_glide_energy>  (1) 
-34.430594405602648

>  <r_i_glide_erotb>  (1) 
1.2864650569138796

>  <r_i_glide_esite>  (1) 
-0.027526571005837133

>  <r_i_glide_evdw>  (1) 
-33.35199937372478

>  <r_i_glide_gscore>  (1) 
-5.4429663033465951

>  <r_i_glide_gscore_strain>  (1) 
0

>  <r_i_glide_hbond>  (1) 
0

>  <r_i_glide_ligand_efficiency>  (1) 
-0.24740755924302704

>  <r_i_glide_ligand_efficiency_ln>  (1) 
-1.3304595015577243

>  <r_i_glide_ligand_efficiency_sa>  (1) 
-0.6932457117004146

>  <r_i_glide_lipo>  (1) 
-2.8458497063709043

>  <r_i_glide_metal>  (1) 
-0

>  <r_i_glide_rewards>  (1) 
-2.0266658594158136

>  <r_lp_Energy>  (1) 
15.270403

>  <r_lp_tautomer_probability>  (1) 
1

>  <s_epik_cmdline>  (1) 
J2VwaWtfcHl0aG9uJywgJy1waHQnLCAnMS4wJywgJy1waCcsICc3LjQnLCAnLXRuJywgJzgnLCAnLW1hJywgJzUwMCcsICctaW1hZScsICc8aW5maWxlLm1hZT4nLCAnLW9tYWUnLCAnPG91dGZpbGUubWFlPic=

>  <s_epik_input>  (1) 
W2NIXTFbY0hdW2NIXVtjSF1bY0hdYzFbQ0gyXVtDSDJdW0NIMl1bQ0gyXVtDQEhdKFtDSDNdKVNDKD1PKVtDQEhdKFtDQEhdMltDSDNdKVtDSDJdW0NIMl1bQ0gyXVtDSDJdMg==

>  <s_glide_docking_method>  (1) 
confgen

>  <s_i_glide_gridfile>  (1) 
gpcr_drd2_6luq_protein_autoprepared_prepared

>  <s_lp_Force_Field>  (1) 
S-OPLS

>  <s_lp_Variant>  (1) 
DiffSBDD_20_num_sample_100-1

>  <s_m_source_file>  (1) 
generated__ligand_DiffSBDD_2026-05-06_prepared.sdf

>  <GenAI_Model>  (1) 
DiffSBDD

>  <Protein>  (1) 
generic_title2

$$$$
DiffSBDD_0_num_sample_100
     RDKit          3D

  0  0  0  0  0  0  0  0  0  0999 V3000
M  V30 BEGIN CTAB
M  V30 COUNTS 105 110 0 0 1
M  V30 BEGIN ATOM
M  V30 1 C 3.086939 9.603664 -22.709892 0
M  V30 2 C 8.993195 4.533806 -14.056398 0
M  V30 3 O 10.603941 5.263222 -18.036100 0
M  V30 4 C 10.248499 4.089987 -18.740348 0 CFG=1
M  V30 5 S 5.435639 5.051362 -12.096307 0
M  V30 6 C 5.029352 8.101751 -21.834010 0 CFG=1
M  V30 7 C 4.509093 5.049403 -21.468048 0
M  V30 8 C 7.506140 4.662404 -19.820268 0 CFG=2
M  V30 9 C 8.846694 5.369949 -9.185302 0
M  V30 10 C 5.101961 5.548870 -20.133176 0
M  V30 11 C 6.441726 8.216057 -21.153082 0 CFG=1
M  V30 12 C 5.167471 5.611922 -22.742270 0
M  V30 13 C 6.230767 6.076506 -14.463817 0 CFG=1
M  V30 14 O 6.244441 3.812549 -11.718475 0
M  V30 15 C 6.821269 5.862300 -16.508195 0 CFG=2
M  V30 16 N 9.435462 7.609046 -8.412922 0 CHG=1
M  V30 17 C 6.807393 10.359286 -22.617531 0
M  V30 18 O 5.098424 5.959856 -10.692173 0
M  V30 19 O 5.456836 7.380700 -17.675079 0
M  V30 20 C 6.706514 4.876299 -15.310233 0 CFG=1
M  V30 21 C 7.167688 6.932603 -20.647878 0
M  V30 22 C 8.865447 8.572641 -6.302444 0
M  V30 23 O 5.538350 6.046184 -17.099829 0
M  V30 24 O 7.871514 5.627528 -17.470515 0
M  V30 25 S 8.907889 6.904817 -20.703544 0
M  V30 26 C 7.386195 9.042533 -22.087533 0
M  V30 27 C 9.276802 3.864579 -12.701054 0
M  V30 28 C 8.121182 2.736998 -15.741218 0
M  V30 29 C 9.062038 4.326846 -10.254970 0
M  V30 30 C 9.300204 4.924504 -11.620075 0
M  V30 31 C 8.805229 5.072318 -20.607322 0 CFG=1
M  V30 32 O 11.358466 6.582599 -5.653558 0
M  V30 33 C 9.556584 7.401555 -6.963997 0 CFG=2
M  V30 34 C 7.782412 3.906389 -14.794645 0 CFG=1
M  V30 35 C 9.877290 6.499756 -9.243172 0
M  V30 36 C 8.957388 3.497334 -18.129178 0 CFG=1
M  V30 37 C 11.031969 7.388803 -6.547905 0
M  V30 38 C 10.100593 4.351423 -20.235263 0
M  V30 39 N 5.464714 10.144060 -23.180457 0 CHG=1
M  V30 40 O 11.798278 8.188540 -7.137547 0 CHG=-1
M  V30 41 N 6.409665 6.149695 -13.017436 0
M  V30 42 C 4.539649 9.526338 -22.208778 0 CFG=1
M  V30 43 C 9.273592 2.948466 -16.734061 0
M  V30 44 C 6.597136 5.803249 -20.209874 0
M  V30 45 C 4.907609 7.103895 -23.020787 0
M  V30 46 C 7.722957 4.435164 -18.280991 0 CFG=2
M  V30 47 C 7.034918 6.951191 -15.423797 0
M  V30 48 H 2.417752 9.099854 -22.016053 0
M  V30 49 H 2.957653 9.145151 -23.688567 0
M  V30 50 H 2.753408 10.637162 -22.790520 0
M  V30 51 H 9.907168 4.598185 -14.629538 0
M  V30 52 H 8.801361 5.582553 -13.867565 0
M  V30 53 H 9.800738 5.647959 -17.712130 0
M  V30 54 H 11.063717 3.376151 -18.622192 0
M  V30 55 H 4.288493 7.812602 -21.101543 0
M  V30 56 H 3.438452 5.242810 -21.487101 0
M  V30 57 H 4.610005 3.963790 -21.496950 0
M  V30 58 H 7.129994 3.739025 -20.262348 0
M  V30 59 H 8.864245 4.878982 -8.211454 0
M  V30 60 H 7.834257 5.768186 -9.307334 0
M  V30 61 H 4.565847 6.392858 -19.722991 0
M  V30 62 H 4.940619 4.775090 -19.385156 0
M  V30 63 H 6.298340 8.826191 -20.262683 0
M  V30 64 H 6.237991 5.405040 -22.741333 0
M  V30 65 H 4.790550 5.039383 -23.592213 0
M  V30 66 H 5.166298 6.251075 -14.641489 0
M  V30 67 H 8.457485 7.776606 -8.664047 0
M  V30 68 H 7.466328 10.771240 -23.386264 0
M  V30 69 H 6.754574 11.106908 -21.831475 0
M  V30 70 H 5.877452 6.437496 -10.423735 0
M  V30 71 H 5.110835 7.872635 -16.946959 0
M  V30 72 H 5.834879 4.275117 -15.407305 0
M  V30 73 H 9.496944 9.015181 -5.537365 0
M  V30 74 H 7.900918 8.296742 -5.891817 0
M  V30 75 H 8.666975 9.351586 -7.047917 0
M  V30 76 H 8.302157 9.323284 -21.568713 0
M  V30 77 H 7.682570 8.426112 -22.938947 0
M  V30 78 H 8.558575 3.076305 -12.461267 0
M  V30 79 H 10.234766 3.356575 -12.691737 0
M  V30 80 H 7.228507 2.387387 -16.256130 0
M  V30 81 H 8.406005 1.895947 -15.113564 0
M  V30 82 H 9.835490 3.627826 -9.973817 0
M  V30 83 H 8.137725 3.769489 -10.295511 0
M  V30 84 H 8.531395 5.677472 -11.761846 0
M  V30 85 H 10.248364 5.450877 -11.693640 0
M  V30 86 H 8.620771 4.799226 -21.649668 0
M  V30 87 H 9.076232 6.474918 -6.657371 0
M  V30 88 H 7.227209 3.378840 -14.020926 0
M  V30 89 H 10.870890 6.164592 -8.957046 0
M  V30 90 H 9.964021 6.943291 -10.231389 0
M  V30 91 H 8.706161 2.610063 -18.716109 0
M  V30 92 H 10.966501 4.873556 -20.640156 0
M  V30 93 H 10.094039 3.380009 -20.735058 0
M  V30 94 H 5.084825 11.022020 -23.502277 0
M  V30 95 H 7.388270 6.060389 -12.782238 0
M  V30 96 H 4.571317 10.121209 -21.293488 0
M  V30 97 H 10.061655 3.540633 -16.298551 0
M  V30 98 H 9.763611 1.986006 -16.885992 0
M  V30 99 H 3.897307 7.151368 -23.423386 0
M  V30 100 H 5.562766 7.409075 -23.836771 0
M  V30 101 H 6.838213 3.896768 -17.941427 0
M  V30 102 H 6.616309 7.943324 -15.578076 0
M  V30 103 H 8.056782 7.041258 -15.091117 0
M  V30 104 H 9.995293 8.423877 -8.623668 0
M  V30 105 H 5.547633 9.518072 -23.964074 0
M  V30 END ATOM
M  V30 BEGIN BOND
M  V30 1 1 4 3
M  V30 2 1 10 7
M  V30 3 1 11 6
M  V30 4 1 12 7
M  V30 5 2 14 5
M  V30 6 1 5 18 CFG=1
M  V30 7 1 20 13
M  V30 8 1 20 15
M  V30 9 1 21 11
M  V30 10 1 15 23 CFG=3
M  V30 11 1 23 19
M  V30 12 1 24 15
M  V30 13 1 25 21
M  V30 14 1 26 11
M  V30 15 1 26 17
M  V30 16 1 27 2
M  V30 17 1 29 9
M  V30 18 1 30 27
M  V30 19 1 30 29
M  V30 20 1 31 8
M  V30 21 1 31 25
M  V30 22 1 33 16
M  V30 23 1 33 22
M  V30 24 1 34 2
M  V30 25 1 34 20
M  V30 26 1 34 28
M  V30 27 1 35 9
M  V30 28 1 35 16
M  V30 29 1 36 4
M  V30 30 2 37 32
M  V30 31 1 37 33
M  V30 32 1 38 4
M  V30 33 1 38 31
M  V30 34 1 39 17
M  V30 35 1 40 37
M  V30 36 1 41 5
M  V30 37 1 41 13
M  V30 38 1 42 1
M  V30 39 1 42 6
M  V30 40 1 42 39
M  V30 41 1 43 28
M  V30 42 1 43 36
M  V30 43 1 44 8
M  V30 44 1 44 10
M  V30 45 2 44 21
M  V30 46 1 45 6
M  V30 47 1 45 12
M  V30 48 1 46 8
M  V30 49 1 46 24
M  V30 50 1 46 36
M  V30 51 1 47 13
M  V30 52 1 47 15
M  V30 53 1 48 1
M  V30 54 1 49 1
M  V30 55 1 50 1
M  V30 56 1 51 2
M  V30 57 1 52 2
M  V30 58 1 53 3
M  V30 59 1 4 54 CFG=3
M  V30 60 1 6 55 CFG=1
M  V30 61 1 56 7
M  V30 62 1 57 7
M  V30 63 1 8 58 CFG=3
M  V30 64 1 59 9
M  V30 65 1 60 9
M  V30 66 1 61 10
M  V30 67 1 62 10
M  V30 68 1 11 63 CFG=1
M  V30 69 1 64 12
M  V30 70 1 65 12
M  V30 71 1 13 66 CFG=1
M  V30 72 1 67 16
M  V30 73 1 68 17
M  V30 74 1 69 17
M  V30 75 1 70 18
M  V30 76 1 71 19
M  V30 77 1 20 72 CFG=3
M  V30 78 1 73 22
M  V30 79 1 74 22
M  V30 80 1 75 22
M  V30 81 1 76 26
M  V30 82 1 77 26
M  V30 83 1 78 27
M  V30 84 1 79 27
M  V30 85 1 80 28
M  V30 86 1 81 28
M  V30 87 1 82 29
M  V30 88 1 83 29
M  V30 89 1 84 30
M  V30 90 1 85 30
M  V30 91 1 31 86 CFG=3
M  V30 92 1 33 87 CFG=3
M  V30 93 1 34 88 CFG=1
M  V30 94 1 89 35
M  V30 95 1 90 35
M  V30 96 1 36 91 CFG=3
M  V30 97 1 92 38
M  V30 98 1 93 38
M  V30 99 1 94 39
M  V30 100 1 95 41
M  V30 101 1 42 96 CFG=1
M  V30 102 1 97 43
M  V30 103 1 98 43
M  V30 104 1 99 45
M  V30 105 1 100 45
M  V30 106 1 46 101 CFG=1
M  V30 107 1 102 47
M  V30 108 1 103 47
M  V30 109 1 104 16
M  V30 110 1 105 39
M  V30 END BOND
M  V30 END CTAB
M  END
>  <i_epik_Tot_Q>  (1) 
1

>  <i_epik_Tot_abs_Q>  (1) 
3

>  <i_i_glide_confnum>  (1) 
722

>  <i_i_glide_lignum>  (1) 
1

>  <i_i_glide_posenum>  (1) 
352

>  <i_i_glide_rotatable_bonds>  (1) 
15

>  <i_lp_mmshare_version>  (1) 
72125

>  <i_m_source_file_index>  (1) 
1

>  <i_f3d_flags>  (1) 
0

>  <num_sample>  (1) 
100

>  <b_lp_Chiralities_Consistent>  (1) 
1

>  <r_epik_Charging_Adjusted_Penalty>  (1) 
0.0032360822409407838

>  <r_epik_Ionization_Penalty>  (1) 
0.0033274947784888795

>  <r_epik_Ionization_Penalty_Charging>  (1) 
0.0032360822409407838

>  <r_epik_Ionization_Penalty_Neutral>  (1) 
9.1412537548095675e-05

>  <r_epik_State_Penalty>  (1) 
-0

>  <r_glide_ring_energy>  (1) 
0

>  <r_i_docking_score>  (1) 
-5.4285648241808229

>  <r_i_glide_ecoul>  (1) 
-5.0803525116282415

>  <r_i_glide_eff_state_penalty>  (1) 
-0

>  <r_i_glide_einternal>  (1) 
15.455434986995717

>  <r_i_glide_emodel>  (1) 
-29.358353576118795

>  <r_i_glide_emodel_strain>  (1) 
4.1767131874224503

>  <r_i_glide_energy>  (1) 
-36.290936205132311

>  <r_i_glide_erotb>  (1) 
0.30458455882301022

>  <r_i_glide_esite>  (1) 
-0.10000000000000001

>  <r_i_glide_evdw>  (1) 
-31.21058369350407

>  <r_i_glide_gscore>  (1) 
-5.4285648241808229

>  <r_i_glide_gscore_strain>  (1) 
0.044178296855612587

>  <r_i_glide_hbond>  (1) 
-0.35999999999999999

>  <r_i_glide_ligand_efficiency>  (1) 
-0.11550137923788985

>  <r_i_glide_ligand_efficiency_ln>  (1) 
-1.1192576535746721

>  <r_i_glide_ligand_efficiency_sa>  (1) 
-0.41682438968568691

>  <r_i_glide_lipo>  (1) 
-2.1419972899891273

>  <r_i_glide_metal>  (1) 
-0

>  <r_i_glide_rewards>  (1) 
-0.85274832845087734

>  <r_lp_Energy>  (1) 
58.103532999999999

>  <r_lp_tautomer_probability>  (1) 
1

>  <s_epik_cmdline>  (1) 
J2VwaWtfcHl0aG9uJywgJy1waHQnLCAnMS4wJywgJy1waCcsICc3LjQnLCAnLXRuJywgJzgnLCAnLW1hJywgJzUwMCcsICctaW1hZScsICc8aW5maWxlLm1hZT4nLCAnLW9tYWUnLCAnPG91dGZpbGUubWFlPic=

>  <s_epik_input>  (1) 
W0NIM11bQ0BASF0xW05IXVtDSDJdW0NIMl1bQ0BIXTJbQ0BASF0xW0NIMl1bQ0gyXVtDSDJdW0NIMl1DMz1DMlNbQ0BASF0oW0NIMl1bQ0BIXTRbT0hdKVtDQEhdM1tDQEhdKE81KVtDQEBIXTRbQ0gyXVtDSDJdW0NASF0oW0NASF0oW0NAXTU2T1tPSF0pW0NASF0oW0NIMl02KVtOSF1bU0BAXSg9TylbT0hdKVtDSDJdW0NIMl1bQ0gyXVtDSDJdW0NIMl1bQ0gyXVtOSF1bQ0BIXShbQ0gzXSlDKD1PKVtPSF0=

>  <s_glide_docking_method>  (1) 
confgen

>  <s_i_glide_gridfile>  (1) 
gpcr_drd2_6luq_protein_autoprepared_prepared

>  <s_lp_Force_Field>  (1) 
S-OPLS

>  <s_lp_Variant>  (1) 
DiffSBDD_0_num_sample_100-1

>  <s_m_source_file>  (1) 
generated__ligand_DiffSBDD_2026-05-06_prepared.sdf

>  <GenAI_Model>  (1) 
DiffSBDD

>  <Protein>  (1) 
generic_title2

$$$$
DiffSBDD_72_num_sample_100
     RDKit          3D

  0  0  0  0  0  0  0  0  0  0999 V3000
M  V30 BEGIN CTAB
M  V30 COUNTS 32 34 0 0 1
M  V30 BEGIN ATOM
M  V30 1 C 11.838331 7.615358 -3.659944 0
M  V30 2 C 10.234818 6.898642 -9.588923 0
M  V30 3 C 11.035188 8.896049 -6.036630 0
M  V30 4 C 11.434807 6.849094 -4.767740 0
M  V30 5 C 10.630005 6.660609 -7.157891 0 CFG=1
M  V30 6 C 9.141217 6.246119 -7.108321 0
M  V30 7 N 10.904421 7.274460 -8.451548 0
M  V30 8 C 11.834839 9.022204 -3.738523 0
M  V30 9 C 10.646918 7.488485 -10.873033 0
M  V30 10 C 11.038391 7.488660 -5.960317 0
M  V30 11 F 12.213968 9.757621 -2.671410 0
M  V30 12 C 11.434070 9.661964 -4.926736 0
M  V30 13 C 8.726512 5.379142 -8.339476 0
M  V30 14 C 9.588838 6.696392 -11.777479 0
M  V30 15 C 8.657296 5.725730 -10.907455 0
M  V30 16 C 9.263729 6.044201 -9.597252 0
M  V30 17 H 12.145816 7.125855 -2.747635 0
M  V30 18 H 10.729168 9.384517 -6.947151 0
M  V30 19 H 11.436948 5.769872 -4.706873 0
M  V30 20 H 11.230009 5.750397 -7.126471 0
M  V30 21 H 8.894894 5.769439 -6.165946 0
M  V30 22 H 8.554099 7.163211 -7.116284 0
M  V30 23 H 10.480106 8.567035 -10.875533 0
M  V30 24 H 11.431514 10.740060 -4.986203 0
M  V30 25 H 9.130064 4.370155 -8.269050 0
M  V30 26 H 7.640483 5.305395 -8.393435 0
M  V30 27 H 10.115900 6.116521 -12.535938 0
M  V30 28 H 8.965285 7.408619 -12.319120 0
M  V30 29 H 7.604834 6.009429 -10.938250 0
M  V30 30 H 8.780080 4.672556 -11.161706 0
M  V30 31 H 11.683264 7.256604 -11.119472 0
M  V30 32 H 11.664576 7.935064 -8.509575 0
M  V30 END ATOM
M  V30 BEGIN BOND
M  V30 1 2 4 1
M  V30 2 1 6 5
M  V30 3 1 7 2
M  V30 4 1 7 5
M  V30 5 1 8 1
M  V30 6 1 9 2
M  V30 7 2 10 3
M  V30 8 1 10 4
M  V30 9 1 10 5
M  V30 10 1 11 8
M  V30 11 1 12 3
M  V30 12 2 12 8
M  V30 13 1 13 6
M  V30 14 1 14 9
M  V30 15 1 15 14
M  V30 16 2 16 2
M  V30 17 1 16 13
M  V30 18 1 16 15
M  V30 19 1 17 1
M  V30 20 1 18 3
M  V30 21 1 19 4
M  V30 22 1 5 20 CFG=3
M  V30 23 1 21 6
M  V30 24 1 22 6
M  V30 25 1 23 9
M  V30 26 1 24 12
M  V30 27 1 25 13
M  V30 28 1 26 13
M  V30 29 1 27 14
M  V30 30 1 28 14
M  V30 31 1 29 15
M  V30 32 1 30 15
M  V30 33 1 31 9
M  V30 34 1 32 7
M  V30 END BOND
M  V30 END CTAB
M  END
>  <i_epik_Tot_Q>  (1) 
0

>  <i_epik_Tot_abs_Q>  (1) 
0

>  <i_i_glide_confnum>  (1) 
4

>  <i_i_glide_lignum>  (1) 
144

>  <i_i_glide_posenum>  (1) 
310

>  <i_i_glide_rotatable_bonds>  (1) 
1

>  <i_lp_mmshare_version>  (1) 
72125

>  <i_m_source_file_index>  (1) 
73

>  <i_f3d_flags>  (1) 
0

>  <num_sample>  (1) 
100

>  <b_lp_Chiralities_Consistent>  (1) 
1

>  <r_epik_Charging_Adjusted_Penalty>  (1) 
0.00012261153731157732

>  <r_epik_Ionization_Penalty>  (1) 
0.00096767274994002245

>  <r_epik_Ionization_Penalty_Charging>  (1) 
0.00012261153731157732

>  <r_epik_Ionization_Penalty_Neutral>  (1) 
0.00084506121262844516

>  <r_epik_State_Penalty>  (1) 
-0

>  <r_glide_ring_energy>  (1) 
0

>  <r_i_docking_score>  (1) 
-5.4261459253336231

>  <r_i_glide_ecoul>  (1) 
0.19106088569402452

>  <r_i_glide_eff_state_penalty>  (1) 
-0

>  <r_i_glide_einternal>  (1) 
0.18069138579631028

>  <r_i_glide_emodel>  (1) 
-37.604447189952545

>  <r_i_glide_emodel_strain>  (1) 
0

>  <r_i_glide_energy>  (1) 
-27.024122472872762

>  <r_i_glide_erotb>  (1) 
0.35536468767402363

>  <r_i_glide_esite>  (1) 
-0.0065637064915292451

>  <r_i_glide_evdw>  (1) 
-27.215183358566787

>  <r_i_glide_gscore>  (1) 
-5.4261459253336231

>  <r_i_glide_gscore_strain>  (1) 
0

>  <r_i_glide_hbond>  (1) 
0

>  <r_i_glide_ligand_efficiency>  (1) 
-0.33913412033335144

>  <r_i_glide_ligand_efficiency_ln>  (1) 
-1.4383083672349333

>  <r_i_glide_ligand_efficiency_sa>  (1) 
-0.8545644338911409

>  <r_i_glide_lipo>  (1) 
-1.9155257848843568

>  <r_i_glide_metal>  (1) 
-0

>  <r_i_glide_rewards>  (1) 
-2.5273210865575244

>  <r_lp_Energy>  (1) 
12.197267

>  <r_lp_tautomer_probability>  (1) 
1

>  <s_epik_Chemistry_Notes>  (1) 
This compound has an imine and may undergo hydrolysis.

>  <s_epik_cmdline>  (1) 
J2VwaWtfcHl0aG9uJywgJy1waHQnLCAnMS4wJywgJy1waCcsICc3LjQnLCAnLXRuJywgJzgnLCAnLW1hJywgJzUwMCcsICctaW1hZScsICc8aW5maWxlLm1hZT4nLCAnLW9tYWUnLCAnPG91dGZpbGUubWFlPic=

>  <s_epik_input>  (1) 
RmMxW2NIXVtjSF1jKFtjSF1bY0hdMSlbQ0BIXShOMilbQ0gyXVtDSDJdW0NASF0oQz0yMylbQ0gyXVtDSDJdW0NIMl0z

>  <s_glide_docking_method>  (1) 
confgen

>  <s_i_glide_gridfile>  (1) 
gpcr_drd2_6luq_protein_autoprepared_prepared

>  <s_lp_Force_Field>  (1) 
S-OPLS

>  <s_lp_Variant>  (1) 
DiffSBDD_72_num_sample_100-1

>  <s_m_source_file>  (1) 
generated__ligand_DiffSBDD_2026-05-06_prepared.sdf

>  <GenAI_Model>  (1) 
DiffSBDD

>  <Protein>  (1) 
generic_title2

$$$$
DiffSBDD_57_num_sample_100
     RDKit          3D

  0  0  0  0  0  0  0  0  0  0999 V3000
M  V30 BEGIN CTAB
M  V30 COUNTS 57 57 0 0 1
M  V30 BEGIN ATOM
M  V30 1 O 6.137575 4.677415 -14.291578 0 CHG=-1
M  V30 2 C 12.026284 8.072254 -3.837343 0 CFG=2
M  V30 3 O 10.234807 5.711021 -12.650777 0
M  V30 4 C 9.442773 7.525686 -10.312886 0
M  V30 5 C 12.834394 6.227251 -2.309320 0
M  V30 6 O 6.297004 3.068833 -12.300535 0
M  V30 7 C 8.374452 5.287259 -11.093633 0 CFG=2
M  V30 8 C 11.434856 7.130848 -4.885405 0
M  V30 9 C 9.180337 6.032188 -9.984050 0 CFG=2
M  V30 10 C 8.568061 5.724436 -8.583269 0
M  V30 11 C 10.997304 7.534618 -6.088867 0
M  V30 12 C 12.033794 7.543639 -2.381774 0 CFG=1
M  V30 13 C 8.861835 5.395439 -12.563321 0 CFG=2
M  V30 14 C 10.996341 9.002825 -6.500805 0
M  V30 15 P 6.846168 3.600663 -13.566605 0
M  V30 16 O 7.050724 5.769356 -11.091603 0
M  V30 17 C 11.806272 9.913616 -5.557101 0
M  V30 18 C 8.649011 4.099055 -13.370966 0
M  V30 19 C 7.038675 2.147323 -14.725368 0
M  V30 20 C 9.008395 6.602000 -7.395542 0
M  V30 21 C 10.509606 6.550455 -7.133570 0
M  V30 22 N 12.634864 8.557177 -1.491859 0 CHG=1
M  V30 23 C 11.636077 9.541199 -4.074978 0
M  V30 24 F 13.034793 5.769291 -1.091690 0
M  V30 25 H 13.082714 8.086625 -4.083396 0
M  V30 26 H 10.721825 4.942404 -12.930499 0
M  V30 27 H 8.629962 7.993146 -10.855600 0
M  V30 28 H 9.650482 8.137807 -9.440434 0
M  V30 29 H 10.318074 7.623669 -10.953670 0
M  V30 30 H 12.355627 5.416779 -2.854478 0
M  V30 31 H 13.834817 6.362414 -2.691659 0
M  V30 32 H 8.338967 4.233592 -10.811438 0
M  V30 33 H 11.425281 6.078983 -4.646703 0
M  V30 34 H 10.167895 5.579479 -9.946086 0
M  V30 35 H 7.481380 5.769279 -8.631105 0
M  V30 36 H 8.779313 4.681386 -8.340849 0
M  V30 37 H 11.034846 7.346915 -2.008850 0
M  V30 38 H 8.343201 6.217092 -13.062075 0
M  V30 39 H 11.380953 9.097323 -7.517312 0
M  V30 40 H 9.959347 9.335978 -6.526383 0
M  V30 41 H 7.015737 6.504872 -10.478892 0
M  V30 42 H 11.532669 10.956309 -5.720696 0
M  V30 43 H 12.863011 9.835395 -5.819175 0
M  V30 44 H 9.067245 4.218193 -14.369700 0
M  V30 45 H 9.190450 3.278714 -12.899162 0
M  V30 46 H 6.997386 2.460838 -15.766776 0
M  V30 47 H 7.990622 1.642311 -14.566372 0
M  V30 48 H 6.250672 1.412455 -14.564100 0
M  V30 49 H 8.674301 7.626591 -7.549958 0
M  V30 50 H 8.482895 6.267830 -6.500364 0
M  V30 51 H 10.791003 5.539467 -6.844388 0
M  V30 52 H 11.064391 6.751267 -8.048945 0
M  V30 53 H 13.523316 8.869959 -1.855265 0
M  V30 54 H 12.018350 9.354164 -1.418840 0
M  V30 55 H 10.634841 9.769282 -3.736481 0
M  V30 56 H 12.292153 10.169289 -3.481228 0
M  V30 57 H 12.773315 8.162643 -0.574897 0
M  V30 END ATOM
M  V30 BEGIN BOND
M  V30 1 1 8 2
M  V30 2 1 9 4
M  V30 3 1 9 7
M  V30 4 1 10 9
M  V30 5 2 11 8
M  V30 6 1 12 2
M  V30 7 1 12 5
M  V30 8 1 13 3
M  V30 9 1 13 7
M  V30 10 1 14 11
M  V30 11 1 15 1
M  V30 12 2 15 6
M  V30 13 1 16 7
M  V30 14 1 17 14
M  V30 15 1 18 13
M  V30 16 1 18 15
M  V30 17 1 19 15
M  V30 18 1 20 10
M  V30 19 1 21 11
M  V30 20 1 21 20
M  V30 21 1 22 12
M  V30 22 1 23 2
M  V30 23 1 23 17
M  V30 24 1 24 5
M  V30 25 1 2 25 CFG=3
M  V30 26 1 26 3
M  V30 27 1 27 4
M  V30 28 1 28 4
M  V30 29 1 29 4
M  V30 30 1 30 5
M  V30 31 1 31 5
M  V30 32 1 7 32 CFG=1
M  V30 33 1 33 8
M  V30 34 1 9 34 CFG=1
M  V30 35 1 35 10
M  V30 36 1 36 10
M  V30 37 1 12 37 CFG=1
M  V30 38 1 13 38 CFG=3
M  V30 39 1 39 14
M  V30 40 1 40 14
M  V30 41 1 41 16
M  V30 42 1 42 17
M  V30 43 1 43 17
M  V30 44 1 44 18
M  V30 45 1 45 18
M  V30 46 1 46 19
M  V30 47 1 47 19
M  V30 48 1 48 19
M  V30 49 1 49 20
M  V30 50 1 50 20
M  V30 51 1 51 21
M  V30 52 1 52 21
M  V30 53 1 53 22
M  V30 54 1 54 22
M  V30 55 1 55 23
M  V30 56 1 56 23
M  V30 57 1 57 22
M  V30 END BOND
M  V30 END CTAB
M  END
>  <i_epik_Tot_Q>  (1) 
0

>  <i_epik_Tot_abs_Q>  (1) 
2

>  <i_i_glide_confnum>  (1) 
360

>  <i_i_glide_lignum>  (1) 
115

>  <i_i_glide_posenum>  (1) 
329

>  <i_i_glide_rotatable_bonds>  (1) 
12

>  <i_lp_mmshare_version>  (1) 
72125

>  <i_m_source_file_index>  (1) 
58

>  <i_f3d_flags>  (1) 
0

>  <num_sample>  (1) 
100

>  <b_lp_Chiralities_Consistent>  (1) 
1

>  <r_epik_Charging_Adjusted_Penalty>  (1) 
0.062298349578367884

>  <r_epik_Ionization_Penalty>  (1) 
0.031162850121694747

>  <r_epik_Ionization_Penalty_Charging>  (1) 
0.031162474360832908

>  <r_epik_Ionization_Penalty_Neutral>  (1) 
3.7576086184060383e-07

>  <r_epik_State_Penalty>  (1) 
0.031135875217534977

>  <r_glide_ring_energy>  (1) 
0

>  <r_i_docking_score>  (1) 
-5.4193098368063666

>  <r_i_glide_ecoul>  (1) 
-6.3492453665592024

>  <r_i_glide_eff_state_penalty>  (1) 
0.031135875217534977

>  <r_i_glide_einternal>  (1) 
14.619019234905181

>  <r_i_glide_emodel>  (1) 
-28.961370170477611

>  <r_i_glide_emodel_strain>  (1) 
4.8743413212583242

>  <r_i_glide_energy>  (1) 
-29.277715472432963

>  <r_i_glide_erotb>  (1) 
1.1523900364963153

>  <r_i_glide_esite>  (1) 
-0.0098683995885886708

>  <r_i_glide_evdw>  (1) 
-22.92847010587376

>  <r_i_glide_gscore>  (1) 
-5.4504457120239014

>  <r_i_glide_gscore_strain>  (1) 
0.21858533031458105

>  <r_i_glide_hbond>  (1) 
-0.45599999999999996

>  <r_i_glide_ligand_efficiency>  (1) 
-0.22580457653359862

>  <r_i_glide_ligand_efficiency_ln>  (1) 
-1.2970895198722345

>  <r_i_glide_ligand_efficiency_sa>  (1) 
-0.65133310695805779

>  <r_i_glide_lipo>  (1) 
-2.604732212351847

>  <r_i_glide_metal>  (1) 
-0

>  <r_i_glide_rewards>  (1) 
-1.6520101566167935

>  <r_lp_Energy>  (1) 
9.4265720000000002

>  <s_epik_cmdline>  (1) 
J2VwaWtfcHl0aG9uJywgJy1waHQnLCAnMS4wJywgJy1waCcsICc3LjQnLCAnLXRuJywgJzgnLCAnLW1hJywgJzUwMCcsICctaW1hZScsICc8aW5maWxlLm1hZT4nLCAnLW9tYWUnLCAnPG91dGZpbGUubWFlPic=

>  <s_epik_input>  (1) 
W09IXVtQQF0oPU8pKFtDSDNdKVtDSDJdW0NASF0oW09IXSlbQ0BIXShbT0hdKVtDQEBIXShbQ0gzXSlbQ0gyXVtDSDJdW0NIMl1DKFtDSDJdW0NIMl1bQ0gyXTEpPVtDSF1bQ0BASF0xW0NAQEhdKFtDSDJdRilbTkgyXQ==

>  <s_glide_docking_method>  (1) 
confgen

>  <s_i_glide_gridfile>  (1) 
gpcr_drd2_6luq_protein_autoprepared_prepared

>  <s_lp_Force_Field>  (1) 
S-OPLS

>  <s_lp_Variant>  (1) 
DiffSBDD_57_num_sample_100-1

>  <s_m_source_file>  (1) 
generated__ligand_DiffSBDD_2026-05-06_prepared.sdf

>  <GenAI_Model>  (1) 
DiffSBDD

>  <Protein>  (1) 
generic_title2

$$$$
DiffSBDD_71_num_sample_100
     RDKit          3D

  0  0  0  0  0  0  0  0  0  0999 V3000
M  V30 BEGIN CTAB
M  V30 COUNTS 59 61 0 0 1
M  V30 BEGIN ATOM
M  V30 1 C 5.627675 6.784290 -16.458351 0
M  V30 2 C 12.611503 8.619430 -2.409950 0
M  V30 3 C 5.922557 8.170722 -15.880827 0
M  V30 4 C 4.243285 6.766941 -17.120162 0
M  V30 5 N 7.098518 4.969266 -10.362491 0
M  V30 6 O 8.237815 5.769449 -15.406843 0
M  V30 7 C 8.403909 4.909663 -11.019653 0 CFG=2
M  V30 8 N 10.635514 8.026286 -8.112175 0
M  V30 9 F 12.652891 6.245527 -2.110096 0
M  V30 10 C 11.381087 8.500962 -5.997839 0
M  V30 11 C 5.986487 4.262918 -10.988858 0
M  V30 12 C 9.273199 6.061184 -10.484600 0
M  V30 13 O 4.864869 4.169143 -13.091036 0
M  V30 14 C 11.434901 7.089078 -3.933725 0
M  V30 15 C 10.931822 6.710397 -8.650255 0
M  V30 16 N 5.677375 5.780910 -15.390783 0
M  V30 17 C 11.452078 8.514110 -4.506046 0 CFG=1
M  V30 18 S 7.121920 4.912266 -15.009873 0
M  V30 19 C 12.715914 9.091789 -3.866579 0
M  V30 20 C 11.880194 7.263720 -2.474587 0 CFG=2
M  V30 21 C 11.913290 8.875063 -8.200747 0
M  V30 22 O 7.034531 3.558834 -15.575722 0
M  V30 23 C 9.675938 5.900145 -9.007048 0
M  V30 24 N 12.233244 9.063640 -6.771639 0
M  V30 25 C 5.924538 4.383623 -12.510234 0
M  V30 26 N 10.447762 7.920049 -6.673759 0 CHG=1
M  V30 27 C 7.155688 4.755376 -13.212315 0
M  V30 28 C 8.288564 4.993662 -12.532974 0
M  V30 29 H 6.380207 6.526865 -17.205926 0
M  V30 30 H 13.579853 8.569287 -1.911911 0
M  V30 31 H 12.007590 9.327582 -1.839894 0
M  V30 32 H 5.834743 8.939246 -16.648804 0
M  V30 33 H 5.206216 8.423628 -15.100170 0
M  V30 34 H 6.919502 8.227474 -15.444551 0
M  V30 35 H 4.300349 7.094028 -18.159245 0
M  V30 36 H 3.816050 5.769105 -17.091539 0
M  V30 37 H 3.538204 7.428353 -16.617110 0
M  V30 38 H 7.137719 4.834501 -9.362001 0
M  V30 39 H 8.878376 3.953558 -10.791178 0
M  V30 40 H 5.060184 4.652937 -10.565399 0
M  V30 41 H 6.019462 3.208222 -10.728065 0
M  V30 42 H 10.175481 6.111143 -11.095715 0
M  V30 43 H 8.768812 7.017418 -10.633200 0
M  V30 44 H 10.479668 6.569433 -4.027677 0
M  V30 45 H 12.167177 6.488065 -4.473880 0
M  V30 46 H 11.505805 6.168450 -7.900189 0
M  V30 47 H 11.567360 6.805497 -9.528435 0
M  V30 48 H 5.125663 6.009749 -14.563814 0
M  V30 49 H 10.634913 9.144228 -4.177907 0
M  V30 50 H 13.613458 8.660135 -4.291802 0
M  V30 51 H 12.787006 10.168952 -3.961679 0
M  V30 52 H 11.034925 7.259055 -1.788274 0
M  V30 53 H 12.741235 8.383980 -8.715542 0
M  V30 54 H 13.046315 9.572238 -6.454061 0
M  V30 55 H 8.839718 6.143166 -8.348660 0
M  V30 56 H 9.902891 4.848571 -8.826012 0
M  V30 57 H 11.710501 9.821227 -8.697970 0
M  V30 58 H 9.184729 5.267565 -13.071046 0
M  V30 59 H 9.652745 7.402143 -6.321059 0
M  V30 END ATOM
M  V30 BEGIN BOND
M  V30 1 1 3 1
M  V30 2 1 4 1
M  V30 3 1 7 5
M  V30 4 1 11 5
M  V30 5 1 12 7
M  V30 6 1 15 8
M  V30 7 1 16 1
M  V30 8 1 17 10
M  V30 9 1 17 14
M  V30 10 2 18 6
M  V30 11 1 18 16
M  V30 12 1 19 2
M  V30 13 1 19 17
M  V30 14 1 20 2
M  V30 15 1 20 9
M  V30 16 1 20 14
M  V30 17 1 21 8
M  V30 18 2 22 18
M  V30 19 1 23 12
M  V30 20 1 23 15
M  V30 21 1 24 10
M  V30 22 1 24 21
M  V30 23 1 25 11
M  V30 24 2 25 13
M  V30 25 1 26 8
M  V30 26 2 26 10
M  V30 27 1 27 18
M  V30 28 1 27 25
M  V30 29 1 28 7
M  V30 30 2 28 27
M  V30 31 1 29 1
M  V30 32 1 30 2
M  V30 33 1 31 2
M  V30 34 1 32 3
M  V30 35 1 33 3
M  V30 36 1 34 3
M  V30 37 1 35 4
M  V30 38 1 36 4
M  V30 39 1 37 4
M  V30 40 1 38 5
M  V30 41 1 7 39 CFG=3
M  V30 42 1 40 11
M  V30 43 1 41 11
M  V30 44 1 42 12
M  V30 45 1 43 12
M  V30 46 1 44 14
M  V30 47 1 45 14
M  V30 48 1 46 15
M  V30 49 1 47 15
M  V30 50 1 48 16
M  V30 51 1 17 49 CFG=1
M  V30 52 1 50 19
M  V30 53 1 51 19
M  V30 54 1 20 52 CFG=1
M  V30 55 1 53 21
M  V30 56 1 54 24
M  V30 57 1 55 23
M  V30 58 1 56 23
M  V30 59 1 57 21
M  V30 60 1 58 28
M  V30 61 1 59 26
M  V30 END BOND
M  V30 END CTAB
M  END
>  <i_epik_Tot_Q>  (1) 
1

>  <i_epik_Tot_abs_Q>  (1) 
1

>  <i_i_glide_confnum>  (1) 
1533

>  <i_i_glide_lignum>  (1) 
143

>  <i_i_glide_posenum>  (1) 
51

>  <i_i_glide_rotatable_bonds>  (1) 
8

>  <i_lp_mmshare_version>  (1) 
72125

>  <i_m_source_file_index>  (1) 
72

>  <i_f3d_flags>  (1) 
0

>  <num_sample>  (1) 
100

>  <b_lp_Chiralities_Consistent>  (1) 
1

>  <r_epik_Charging_Adjusted_Penalty>  (1) 
1.5363623663438353e-06

>  <r_epik_Ionization_Penalty>  (1) 
0.0003005008715709513

>  <r_epik_Ionization_Penalty_Charging>  (1) 
1.5363623663438353e-06

>  <r_epik_Ionization_Penalty_Neutral>  (1) 
0.00029896450920460744

>  <r_epik_State_Penalty>  (1) 
-0

>  <r_glide_ring_energy>  (1) 
0

>  <r_i_docking_score>  (1) 
-5.4043715145781519

>  <r_i_glide_ecoul>  (1) 
-0.36375377839714396

>  <r_i_glide_eff_state_penalty>  (1) 
-0

>  <r_i_glide_einternal>  (1) 
9.2085200064963146

>  <r_i_glide_emodel>  (1) 
-41.711275347679937

>  <r_i_glide_emodel_strain>  (1) 
2.5778451079733458

>  <r_i_glide_energy>  (1) 
-35.519026501698733

>  <r_i_glide_erotb>  (1) 
0.79707636493019229

>  <r_i_glide_esite>  (1) 
-0.0053395353587100481

>  <r_i_glide_evdw>  (1) 
-35.155272723301586

>  <r_i_glide_gscore>  (1) 
-5.4043715145781519

>  <r_i_glide_gscore_strain>  (1) 
0

>  <r_i_glide_hbond>  (1) 
-0.017859870312793652

>  <r_i_glide_ligand_efficiency>  (1) 
-0.19301326837779115

>  <r_i_glide_ligand_efficiency_ln>  (1) 
-1.2474876248073494

>  <r_i_glide_ligand_efficiency_sa>  (1) 
-0.5861019621816782

>  <r_i_glide_lipo>  (1) 
-2.2738492755742352

>  <r_i_glide_metal>  (1) 
-0

>  <r_i_glide_rewards>  (1) 
-2.0920724953379546

>  <r_lp_Energy>  (1) 
26.720799

>  <r_lp_tautomer_probability>  (1) 
1

>  <s_epik_Chemistry_Notes>  (1) 
This compound has an imine and may undergo hydrolysis. This compound contains an acetal/aminal-like group ( X-CH(R)-Y where X, Y are N, S, or O) that may be acid/base labile, releasing an aldehyde.

>  <s_epik_cmdline>  (1) 
J2VwaWtfcHl0aG9uJywgJy1waHQnLCAnMS4wJywgJy1waCcsICc3LjQnLCAnLXRuJywgJzgnLCAnLW1hJywgJzUwMCcsICctaW1hZScsICc8aW5maWxlLm1hZT4nLCAnLW9tYWUnLCAnPG91dGZpbGUubWFlPic=

>  <s_epik_input>  (1) 
W0NIM11bQ0hdKFtDSDNdKVtOSF1TKD1PKSg9TylDKD1bQ0hdMSlDKD1PKVtDSDJdW05IXVtDQEBIXTFbQ0gyXVtDSDJdW0NIMl1OMltDSDJdTj1DKFtOSF0yKVtDQEhdM1tDSDJdW0NAQEhdKEYpW0NIMl1bQ0gyXTM=

>  <s_glide_docking_method>  (1) 
confgen

>  <s_i_glide_gridfile>  (1) 
gpcr_drd2_6luq_protein_autoprepared_prepared

>  <s_lp_Force_Field>  (1) 
S-OPLS

>  <s_lp_Variant>  (1) 
DiffSBDD_71_num_sample_100-1

>  <s_m_source_file>  (1) 
generated__ligand_DiffSBDD_2026-05-06_prepared.sdf

>  <GenAI_Model>  (1) 
DiffSBDD

>  <Protein>  (1) 
generic_title2

$$$$
DiffSBDD_0_num_sample_100
     RDKit          3D

  0  0  0  0  0  0  0  0  0  0999 V3000
M  V30 BEGIN CTAB
M  V30 COUNTS 105 110 0 0 1
M  V30 BEGIN ATOM
M  V30 1 C 16.227947 0.588205 -22.336735 0
M  V30 2 C 8.574479 4.529712 -16.005921 0
M  V30 3 O 8.256716 1.050931 -16.566016 0
M  V30 4 C 7.526664 0.739771 -17.733278 0 CFG=1
M  V30 5 S 13.036543 6.713024 -15.982814 0
M  V30 6 C 13.895953 0.468339 -21.154677 0 CFG=1
M  V30 7 C 11.388518 0.462137 -22.940707 0
M  V30 8 C 9.315748 0.844286 -20.183661 0 CFG=2
M  V30 9 C 8.547471 5.788984 -11.485698 0
M  V30 10 C 11.117274 1.565015 -21.885367 0
M  V30 11 C 13.206996 0.639783 -19.751222 0 CFG=1
M  V30 12 C 12.010038 -0.859317 -22.418250 0
M  V30 13 C 11.247332 5.396670 -17.576761 0 CFG=1
M  V30 14 O 13.034479 7.239028 -14.547217 0
M  V30 15 C 10.476037 3.809130 -18.754538 0 CFG=2
M  V30 16 N 9.435099 7.074430 -9.528689 0 CHG=1
M  V30 17 C 15.424297 -0.094844 -18.692965 0
M  V30 18 O 13.956567 5.276471 -16.027122 0
M  V30 19 O 10.399488 4.538040 -20.995234 0
M  V30 20 C 9.861749 5.119716 -18.219828 0 CFG=1
M  V30 21 C 11.661437 0.569730 -19.624433 0
M  V30 22 C 11.677278 8.282886 -9.618118 0
M  V30 23 O 11.218711 3.905593 -19.968228 0
M  V30 24 O 9.742655 2.609468 -18.541806 0
M  V30 25 S 10.972937 -0.140612 -18.181737 0
M  V30 26 C 13.911394 -0.257568 -18.703443 0
M  V30 27 C 7.374166 4.937457 -15.124781 0
M  V30 28 C 7.344204 4.589633 -18.335523 0
M  V30 29 C 8.633638 5.642965 -13.013118 0
M  V30 30 C 7.588786 4.691230 -13.619734 0
M  V30 31 C 9.392082 -0.318200 -19.132796 0 CFG=1
M  V30 32 O 10.580122 6.637106 -7.129024 0
M  V30 33 C 10.289264 8.142941 -8.952557 0 CFG=2
M  V30 34 C 8.523575 5.100003 -17.447770 0 CFG=1
M  V30 35 C 9.515665 6.872554 -10.990519 0
M  V30 36 C 7.470371 1.913944 -18.755212 0 CFG=1
M  V30 37 C 10.498514 7.842079 -7.461398 0
M  V30 38 C 8.108141 -0.543847 -18.324955 0
M  V30 39 N 15.992041 -0.310451 -20.034151 0 CHG=1
M  V30 40 O 10.583500 8.822222 -6.690103 0 CHG=-1
M  V30 41 N 11.434625 6.167785 -16.354208 0
M  V30 42 C 15.436737 0.638098 -21.017775 0 CFG=1
M  V30 43 C 6.784851 3.156960 -18.128775 0
M  V30 44 C 10.774063 0.981486 -20.527119 0
M  V30 45 C 13.481430 -0.786507 -21.965284 0
M  V30 46 C 8.797116 2.157425 -19.507902 0 CFG=2
M  V30 47 C 11.496987 3.892172 -17.614331 0
M  V30 48 H 15.795510 1.257639 -23.081715 0
M  V30 49 H 16.262299 -0.413659 -22.764772 0
M  V30 50 H 17.259702 0.906383 -22.182831 0
M  V30 51 H 8.697450 3.452342 -16.016738 0
M  V30 52 H 9.467636 4.893260 -15.511772 0
M  V30 53 H 7.911756 1.852607 -16.205584 0
M  V30 54 H 6.510411 0.522709 -17.400550 0
M  V30 55 H 13.662178 1.321426 -21.777547 0
M  V30 56 H 11.992199 0.870561 -23.751259 0
M  V30 57 H 10.432673 0.204769 -23.398338 0
M  V30 58 H 8.709739 0.553986 -21.043185 0
M  V30 59 H 8.774801 4.833964 -11.009095 0
M  V30 60 H 7.528468 6.051401 -11.194267 0
M  V30 61 H 11.915707 2.295975 -21.806839 0
M  V30 62 H 10.268613 2.152977 -22.232969 0
M  V30 63 H 13.422866 1.665332 -19.447324 0
M  V30 64 H 11.398095 -1.286359 -21.624113 0
M  V30 65 H 11.951623 -1.596728 -23.219257 0
M  V30 66 H 11.870659 5.882276 -18.330388 0
M  V30 67 H 9.681124 6.230140 -9.027633 0
M  V30 68 H 15.816891 -0.830273 -18.005253 0
M  V30 69 H 15.704341 0.891221 -18.320180 0
M  V30 70 H 14.145130 5.025121 -15.135178 0
M  V30 71 H 9.979454 3.783837 -21.378180 0
M  V30 72 H 9.756517 5.843148 -19.027262 0
M  V30 73 H 12.275408 9.046584 -9.117225 0
M  V30 74 H 11.600628 8.579918 -10.662894 0
M  V30 75 H 12.238747 7.350575 -9.577915 0
M  V30 76 H 13.576647 -0.016558 -17.693673 0
M  V30 77 H 13.673979 -1.306506 -18.874107 0
M  V30 78 H 7.147816 5.994006 -15.275343 0
M  V30 79 H 6.478019 4.408124 -15.439577 0
M  V30 80 H 7.555881 4.759288 -19.391234 0
M  V30 81 H 6.505293 5.255973 -18.127916 0
M  V30 82 H 8.499511 6.626268 -13.460160 0
M  V30 83 H 9.639259 5.321408 -13.290487 0
M  V30 84 H 7.865669 3.652902 -13.430830 0
M  V30 85 H 6.633755 4.845648 -13.116661 0
M  V30 86 H 9.541993 -1.235796 -19.702931 0
M  V30 87 H 9.746083 9.081178 -9.067391 0
M  V30 88 H 8.302145 6.155933 -17.300534 0
M  V30 89 H 10.528084 6.585435 -11.275006 0
M  V30 90 H 9.293541 7.820001 -11.484506 0
M  V30 91 H 6.787497 1.574645 -19.536005 0
M  V30 92 H 8.262039 -1.297506 -17.550670 0
M  V30 93 H 7.361838 -0.964497 -19.000032 0
M  V30 94 H 16.994717 -0.196133 -19.986550 0
M  V30 95 H 10.751833 6.907019 -16.268094 0
M  V30 96 H 15.607892 1.638548 -20.615233 0
M  V30 97 H 6.634928 2.980376 -17.069142 0
M  V30 98 H 5.773452 3.165571 -18.534955 0
M  V30 99 H 14.070468 -0.823120 -22.880464 0
M  V30 100 H 13.735343 -1.693791 -21.416740 0
M  V30 101 H 8.628377 2.909099 -20.275200 0
M  V30 102 H 12.512764 3.604626 -17.886323 0
M  V30 103 H 11.175976 3.388308 -16.701142 0
M  V30 104 H 8.462195 7.310881 -9.299537 0
M  V30 105 H 15.790254 -1.257509 -20.324717 0
M  V30 END ATOM
M  V30 BEGIN BOND
M  V30 1 1 4 3
M  V30 2 1 10 7
M  V30 3 1 11 6
M  V30 4 1 12 7
M  V30 5 2 14 5
M  V30 6 1 5 18 CFG=1
M  V30 7 1 20 13
M  V30 8 1 20 15
M  V30 9 1 21 11
M  V30 10 1 15 23 CFG=3
M  V30 11 1 23 19
M  V30 12 1 24 15
M  V30 13 1 25 21
M  V30 14 1 26 11
M  V30 15 1 26 17
M  V30 16 1 27 2
M  V30 17 1 29 9
M  V30 18 1 30 27
M  V30 19 1 30 29
M  V30 20 1 31 8
M  V30 21 1 31 25
M  V30 22 1 33 16
M  V30 23 1 33 22
M  V30 24 1 34 2
M  V30 25 1 34 20
M  V30 26 1 34 28
M  V30 27 1 35 9
M  V30 28 1 35 16
M  V30 29 1 36 4
M  V30 30 2 37 32
M  V30 31 1 37 33
M  V30 32 1 38 4
M  V30 33 1 38 31
M  V30 34 1 39 17
M  V30 35 1 40 37
M  V30 36 1 41 5
M  V30 37 1 41 13
M  V30 38 1 42 1
M  V30 39 1 42 6
M  V30 40 1 42 39
M  V30 41 1 43 28
M  V30 42 1 43 36
M  V30 43 1 44 8
M  V30 44 1 44 10
M  V30 45 2 44 21
M  V30 46 1 45 6
M  V30 47 1 45 12
M  V30 48 1 46 8
M  V30 49 1 46 24
M  V30 50 1 46 36
M  V30 51 1 47 13
M  V30 52 1 47 15
M  V30 53 1 48 1
M  V30 54 1 49 1
M  V30 55 1 50 1
M  V30 56 1 51 2
M  V30 57 1 52 2
M  V30 58 1 53 3
M  V30 59 1 4 54 CFG=1
M  V30 60 1 6 55 CFG=3
M  V30 61 1 56 7
M  V30 62 1 57 7
M  V30 63 1 8 58 CFG=3
M  V30 64 1 59 9
M  V30 65 1 60 9
M  V30 66 1 61 10
M  V30 67 1 62 10
M  V30 68 1 11 63 CFG=1
M  V30 69 1 64 12
M  V30 70 1 65 12
M  V30 71 1 13 66 CFG=3
M  V30 72 1 67 16
M  V30 73 1 68 17
M  V30 74 1 69 17
M  V30 75 1 70 18
M  V30 76 1 71 19
M  V30 77 1 20 72 CFG=3
M  V30 78 1 73 22
M  V30 79 1 74 22
M  V30 80 1 75 22
M  V30 81 1 76 26
M  V30 82 1 77 26
M  V30 83 1 78 27
M  V30 84 1 79 27
M  V30 85 1 80 28
M  V30 86 1 81 28
M  V30 87 1 82 29
M  V30 88 1 83 29
M  V30 89 1 84 30
M  V30 90 1 85 30
M  V30 91 1 31 86 CFG=3
M  V30 92 1 33 87 CFG=1
M  V30 93 1 34 88 CFG=1
M  V30 94 1 89 35
M  V30 95 1 90 35
M  V30 96 1 36 91 CFG=3
M  V30 97 1 92 38
M  V30 98 1 93 38
M  V30 99 1 94 39
M  V30 100 1 95 41
M  V30 101 1 42 96 CFG=1
M  V30 102 1 97 43
M  V30 103 1 98 43
M  V30 104 1 99 45
M  V30 105 1 100 45
M  V30 106 1 46 101 CFG=3
M  V30 107 1 102 47
M  V30 108 1 103 47
M  V30 109 1 104 16
M  V30 110 1 105 39
M  V30 END BOND
M  V30 END CTAB
M  END
>  <i_epik_Tot_Q>  (1) 
1

>  <i_epik_Tot_abs_Q>  (1) 
3

>  <i_i_glide_confnum>  (1) 
357

>  <i_i_glide_lignum>  (1) 
1

>  <i_i_glide_posenum>  (1) 
221

>  <i_i_glide_rotatable_bonds>  (1) 
15

>  <i_lp_mmshare_version>  (1) 
72125

>  <i_m_source_file_index>  (1) 
1

>  <i_f3d_flags>  (1) 
0

>  <num_sample>  (1) 
100

>  <b_lp_Chiralities_Consistent>  (1) 
1

>  <r_epik_Charging_Adjusted_Penalty>  (1) 
0.0032360822409407838

>  <r_epik_Ionization_Penalty>  (1) 
0.0033274947784888795

>  <r_epik_Ionization_Penalty_Charging>  (1) 
0.0032360822409407838

>  <r_epik_Ionization_Penalty_Neutral>  (1) 
9.1412537548095675e-05

>  <r_epik_State_Penalty>  (1) 
-0

>  <r_glide_ring_energy>  (1) 
0

>  <r_i_docking_score>  (1) 
-5.4034639428090774

>  <r_i_glide_ecoul>  (1) 
-7.8896487355206233

>  <r_i_glide_eff_state_penalty>  (1) 
-0

>  <r_i_glide_einternal>  (1) 
6.8482311315370037

>  <r_i_glide_emodel>  (1) 
-40.305426834424495

>  <r_i_glide_emodel_strain>  (1) 
3.6002096560206809

>  <r_i_glide_energy>  (1) 
-42.380893094829183

>  <r_i_glide_erotb>  (1) 
0.30458455882301022

>  <r_i_glide_esite>  (1) 
-0.11254884729583173

>  <r_i_glide_evdw>  (1) 
-34.49124435930856

>  <r_i_glide_gscore>  (1) 
-5.4034639428090774

>  <r_i_glide_gscore_strain>  (1) 
0

>  <r_i_glide_hbond>  (1) 
-0.20000000000000001

>  <r_i_glide_ligand_efficiency>  (1) 
-0.11496731793210803

>  <r_i_glide_ligand_efficiency_ln>  (1) 
-1.1140823716177073

>  <r_i_glide_ligand_efficiency_sa>  (1) 
-0.41489705531698856

>  <r_i_glide_lipo>  (1) 
-1.7842854342598911

>  <r_i_glide_metal>  (1) 
-0

>  <r_i_glide_rewards>  (1) 
-0.70320469178284317

>  <r_lp_Energy>  (1) 
58.103532999999999

>  <r_lp_tautomer_probability>  (1) 
1

>  <s_epik_cmdline>  (1) 
J2VwaWtfcHl0aG9uJywgJy1waHQnLCAnMS4wJywgJy1waCcsICc3LjQnLCAnLXRuJywgJzgnLCAnLW1hJywgJzUwMCcsICctaW1hZScsICc8aW5maWxlLm1hZT4nLCAnLW9tYWUnLCAnPG91dGZpbGUubWFlPic=

>  <s_epik_input>  (1) 
W0NIM11bQ0BASF0xW05IXVtDSDJdW0NIMl1bQ0BIXTJbQ0BASF0xW0NIMl1bQ0gyXVtDSDJdW0NIMl1DMz1DMlNbQ0BASF0oW0NIMl1bQ0BIXTRbT0hdKVtDQEhdM1tDQEhdKE81KVtDQEBIXTRbQ0gyXVtDSDJdW0NASF0oW0NASF0oW0NAXTU2T1tPSF0pW0NASF0oW0NIMl02KVtOSF1bU0BAXSg9TylbT0hdKVtDSDJdW0NIMl1bQ0gyXVtDSDJdW0NIMl1bQ0gyXVtOSF1bQ0BIXShbQ0gzXSlDKD1PKVtPSF0=

>  <s_glide_docking_method>  (1) 
confgen

>  <s_i_glide_gridfile>  (1) 
gpcr_drd2_6luq_protein_autoprepared_prepared

>  <s_lp_Force_Field>  (1) 
S-OPLS

>  <s_lp_Variant>  (1) 
DiffSBDD_0_num_sample_100-1

>  <s_m_source_file>  (1) 
generated__ligand_DiffSBDD_2026-05-06_prepared.sdf

>  <GenAI_Model>  (1) 
DiffSBDD

>  <Protein>  (1) 
generic_title2

$$$$
DiffSBDD_53_num_sample_100
     RDKit          3D

  0  0  0  0  0  0  0  0  0  0999 V3000
M  V30 BEGIN CTAB
M  V30 COUNTS 57 60 0 0 1
M  V30 BEGIN ATOM
M  V30 1 N 10.213498 6.850220 -8.706111 0
M  V30 2 C 5.133080 4.864175 -20.382660 0
M  V30 3 C 7.601878 4.823478 -10.474058 0
M  V30 4 C 11.213655 7.763720 -8.814428 0
M  V30 5 O 5.874036 6.560869 -13.816750 0
M  V30 6 C 7.579469 3.935086 -15.338337 0
M  V30 7 C 7.805040 5.176977 -11.820535 0
M  V30 8 O 8.177105 5.144205 -23.180130 0
M  V30 9 C 6.610665 8.449098 -21.082035 0
M  V30 10 C 6.244029 5.953959 -20.304194 0 CFG=2
M  V30 11 F 4.593449 7.380321 -21.319788 0
M  V30 12 C 11.848983 8.209370 -7.498599 0
M  V30 13 F 13.115007 8.569003 -7.704821 0
M  V30 14 C 7.557876 5.354135 -20.867683 0
M  V30 15 C 8.415637 5.369250 -9.466632 0
M  V30 16 C 9.434723 6.289454 -9.793039 0
M  V30 17 F 11.167955 9.239721 -6.999228 0
M  V30 18 C 6.494737 5.524011 -14.050756 0
M  V30 19 N 6.588978 5.793765 -16.546709 0
M  V30 20 C 7.422869 5.637316 -22.344979 0
M  V30 21 C 5.696572 6.945656 -16.594027 0
M  V30 22 C 9.648730 6.642781 -11.158433 0
M  V30 23 C 6.915577 4.572910 -12.900734 0 CFG=1
M  V30 24 C 7.028245 5.366580 -17.863024 0
M  V30 25 C 6.296931 6.567255 -22.722900 0
M  V30 26 C 6.904643 5.069358 -15.378684 0
M  V30 27 C 6.476111 6.430226 -18.831629 0 CFG=2
M  V30 28 C 5.269248 7.007530 -18.066344 0
M  V30 29 S 7.834673 3.204131 -13.769286 0
M  V30 30 O 11.620419 8.226179 -9.875874 0
M  V30 31 C 5.897476 7.103755 -21.331644 0 CFG=1
M  V30 32 C 8.834880 6.081931 -12.162659 0
M  V30 33 H 9.965979 6.542965 -7.778201 0
M  V30 34 H 4.984454 4.498825 -21.398925 0
M  V30 35 H 5.363545 3.989609 -19.779155 0
M  V30 36 H 4.166066 5.240461 -20.055005 0
M  V30 37 H 6.815399 4.132240 -10.210834 0
M  V30 38 H 7.968547 3.433974 -16.212319 0
M  V30 39 H 7.689410 8.328897 -20.980277 0
M  V30 40 H 6.433460 9.140934 -21.906229 0
M  V30 41 H 6.237244 8.935131 -20.181760 0
M  V30 42 H 11.834876 7.408062 -6.759348 0
M  V30 43 H 8.438948 5.872813 -20.489505 0
M  V30 44 H 7.661333 4.287901 -20.663970 0
M  V30 45 H 8.244943 5.097793 -8.435336 0
M  V30 46 H 4.805231 6.832844 -15.977536 0
M  V30 47 H 6.230044 7.848655 -16.292396 0
M  V30 48 H 10.412623 7.332991 -11.445300 0
M  V30 49 H 6.014172 4.159811 -12.447574 0
M  V30 50 H 8.116618 5.308426 -17.912520 0
M  V30 51 H 6.627408 4.373370 -18.057927 0
M  V30 52 H 6.620611 7.346505 -23.412722 0
M  V30 53 H 5.494673 5.991807 -23.183793 0
M  V30 54 H 7.235450 7.212151 -18.844614 0
M  V30 55 H 4.388981 6.379453 -18.194224 0
M  V30 56 H 5.000359 8.015926 -18.379461 0
M  V30 57 H 8.996536 6.351673 -13.194968 0
M  V30 END ATOM
M  V30 BEGIN BOND
M  V30 1 1 4 1
M  V30 2 1 7 3
M  V30 3 1 10 2 CFG=1
M  V30 4 1 12 4
M  V30 5 1 13 12
M  V30 6 1 14 10
M  V30 7 2 15 3
M  V30 8 1 16 1
M  V30 9 1 16 15
M  V30 10 1 17 12
M  V30 11 2 18 5
M  V30 12 2 20 8
M  V30 13 1 20 14
M  V30 14 1 21 19
M  V30 15 2 22 16
M  V30 16 1 23 7
M  V30 17 1 23 18
M  V30 18 1 24 19
M  V30 19 1 25 20
M  V30 20 2 26 6
M  V30 21 1 26 18
M  V30 22 1 26 19
M  V30 23 1 27 10
M  V30 24 1 27 24
M  V30 25 1 28 21
M  V30 26 1 28 27
M  V30 27 1 29 6
M  V30 28 1 29 23
M  V30 29 2 30 4
M  V30 30 1 31 9
M  V30 31 1 31 10
M  V30 32 1 31 11 CFG=3
M  V30 33 1 31 25
M  V30 34 2 32 7
M  V30 35 1 32 22
M  V30 36 1 33 1
M  V30 37 1 34 2
M  V30 38 1 35 2
M  V30 39 1 36 2
M  V30 40 1 37 3
M  V30 41 1 38 6
M  V30 42 1 39 9
M  V30 43 1 40 9
M  V30 44 1 41 9
M  V30 45 1 42 12
M  V30 46 1 43 14
M  V30 47 1 44 14
M  V30 48 1 45 15
M  V30 49 1 46 21
M  V30 50 1 47 21
M  V30 51 1 48 22
M  V30 52 1 23 49 CFG=1
M  V30 53 1 50 24
M  V30 54 1 51 24
M  V30 55 1 52 25
M  V30 56 1 53 25
M  V30 57 1 27 54 CFG=3
M  V30 58 1 55 28
M  V30 59 1 56 28
M  V30 60 1 57 32
M  V30 END BOND
M  V30 END CTAB
M  END
>  <i_epik_Tot_Q>  (1) 
0

>  <i_epik_Tot_abs_Q>  (1) 
0

>  <i_i_glide_confnum>  (1) 
74

>  <i_i_glide_lignum>  (1) 
99

>  <i_i_glide_posenum>  (1) 
24

>  <i_i_glide_rotatable_bonds>  (1) 
6

>  <i_lp_mmshare_version>  (1) 
72125

>  <i_m_source_file_index>  (1) 
54

>  <i_f3d_flags>  (1) 
0

>  <num_sample>  (1) 
100

>  <b_lp_Chiralities_Consistent>  (1) 
1

>  <r_epik_Charging_Adjusted_Penalty>  (1) 
4.1888359508332041e-06

>  <r_epik_Ionization_Penalty>  (1) 
8.7681406238932585e-06

>  <r_epik_Ionization_Penalty_Charging>  (1) 
4.1888359508332041e-06

>  <r_epik_Ionization_Penalty_Neutral>  (1) 
4.5793046730600536e-06

>  <r_epik_State_Penalty>  (1) 
-0

>  <r_glide_ring_energy>  (1) 
0.96684297087673354

>  <r_i_docking_score>  (1) 
-5.3978366208939832

>  <r_i_glide_ecoul>  (1) 
0.050850201007668981

>  <r_i_glide_eff_state_penalty>  (1) 
-0

>  <r_i_glide_einternal>  (1) 
4.0374338433487313

>  <r_i_glide_emodel>  (1) 
-51.468519972455191

>  <r_i_glide_emodel_strain>  (1) 
0.13390205575761627

>  <r_i_glide_energy>  (1) 
-40.768383445275582

>  <r_i_glide_erotb>  (1) 
0.46348911734649417

>  <r_i_glide_esite>  (1) 
-0.0535382353482938

>  <r_i_glide_evdw>  (1) 
-40.819233646283251

>  <r_i_glide_gscore>  (1) 
-5.3978366208939832

>  <r_i_glide_gscore_strain>  (1) 
0

>  <r_i_glide_hbond>  (1) 
0

>  <r_i_glide_ligand_efficiency>  (1) 
-0.16868239440293697

>  <r_i_glide_ligand_efficiency_ln>  (1) 
-1.208722758887262

>  <r_i_glide_ligand_efficiency_sa>  (1) 
-0.53553322064747388

>  <r_i_glide_lipo>  (1) 
-1.8009206372069386

>  <r_i_glide_metal>  (1) 
-0

>  <r_i_glide_rewards>  (1) 
-1.9735327135222338

>  <r_lp_Energy>  (1) 
16.010603

>  <r_lp_tautomer_probability>  (1) 
1

>  <s_epik_Chemistry_Notes>  (1) 
This compound has an imine and may undergo hydrolysis.

>  <s_epik_cmdline>  (1) 
J2VwaWtfcHl0aG9uJywgJy1waHQnLCAnMS4wJywgJy1waCcsICc3LjQnLCAnLXRuJywgJzgnLCAnLW1hJywgJzUwMCcsICctaW1hZScsICc8aW5maWxlLm1hZT4nLCAnLW9tYWUnLCAnPG91dGZpbGUubWFlPic=

>  <s_epik_input>  (1) 
RltDSF0oRilDKD1PKVtOSF1jKFtjSF1bY0hdMSlbY0hdW2NIXWMxW0NAQEhdKEMyPU8pU1tDSF09QzJOM1tDSDJdW0NIMl1bQ0BASF0oW0NIMl0zKVtDQF00KFtDSDNdKVtDSDJdQyg9TylbQ0gyXVtDQF00KEYpW0NIM10=

>  <s_glide_docking_method>  (1) 
confgen

>  <s_i_glide_gridfile>  (1) 
gpcr_drd2_6luq_protein_autoprepared_prepared

>  <s_lp_Force_Field>  (1) 
S-OPLS

>  <s_lp_Variant>  (1) 
DiffSBDD_53_num_sample_100-1

>  <s_m_source_file>  (1) 
generated__ligand_DiffSBDD_2026-05-06_prepared.sdf

>  <GenAI_Model>  (1) 
DiffSBDD

>  <Protein>  (1) 
generic_title2

$$$$
DiffSBDD_38_num_sample_100
     RDKit          3D

  0  0  0  0  0  0  0  0  0  0999 V3000
M  V30 BEGIN CTAB
M  V30 COUNTS 50 52 0 0 1
M  V30 BEGIN ATOM
M  V30 1 C 8.745272 6.516713 -12.403179 0
M  V30 2 S 8.700708 5.275447 -8.619907 0
M  V30 3 C 11.374877 7.418771 -5.983742 0
M  V30 4 C 9.890002 7.578919 -6.359176 0
M  V30 5 N 5.834971 6.818403 -15.074740 0 CHG=1
M  V30 6 C 12.195632 8.299948 -2.394333 0
M  V30 7 C 6.979205 5.130471 -13.664640 0
M  V30 8 O 11.820376 6.169298 -3.466199 0
M  V30 9 C 12.168381 9.723231 -3.105647 0
M  V30 10 C 7.001824 5.918774 -14.983599 0
M  V30 11 C 9.074661 6.215251 -10.983855 0
M  V30 12 C 9.990585 6.602650 -8.762958 0 CFG=1
M  V30 13 N 11.691104 8.049614 -4.691692 0
M  V30 14 C 9.834849 6.961610 -10.205731 0
M  V30 15 C 8.399632 5.042130 -10.429403 0 CFG=2
M  V30 16 C 11.828205 9.337749 -4.543526 0
M  V30 17 C 7.011925 5.314198 -11.032098 0 CFG=2
M  V30 18 O 11.704973 10.169501 -5.439682 0
M  V30 19 O 6.189272 4.169279 -11.069574 0
M  V30 20 C 7.273185 6.006486 -12.425320 0 CFG=1
M  V30 21 C 11.880009 7.383580 -3.579731 0
M  V30 22 C 5.804040 7.660378 -16.284644 0
M  V30 23 C 9.673616 7.804636 -7.858722 0
M  V30 24 H 9.399933 5.935435 -13.053839 0
M  V30 25 H 8.839976 7.577203 -12.641113 0
M  V30 26 H 11.650310 6.362147 -6.004165 0
M  V30 27 H 11.993773 7.887122 -6.751373 0
M  V30 28 H 9.465312 8.451635 -5.865734 0
M  V30 29 H 9.314228 6.724366 -6.002402 0
M  V30 30 H 5.003056 6.247183 -15.054639 0
M  V30 31 H 11.434967 8.210565 -1.619038 0
M  V30 32 H 13.173385 8.074722 -1.971732 0
M  V30 33 H 7.705319 4.316629 -13.709272 0
M  V30 34 H 6.004805 4.651171 -13.569301 0
M  V30 35 H 11.434732 10.403683 -2.678220 0
M  V30 36 H 13.152855 10.169280 -3.091661 0
M  V30 37 H 7.924063 6.493292 -15.076243 0
M  V30 38 H 6.973134 5.224610 -15.825027 0
M  V30 39 H 10.989724 6.204851 -8.589614 0
M  V30 40 H 10.320373 7.854581 -10.573373 0
M  V30 41 H 8.865226 4.135101 -10.817104 0
M  V30 42 H 6.474089 6.020888 -10.404821 0
M  V30 43 H 5.952200 3.967091 -10.173874 0
M  V30 44 H 6.612296 6.872704 -12.455887 0
M  V30 45 H 4.874833 8.228387 -16.316639 0
M  V30 46 H 6.634814 8.365355 -16.288081 0
M  V30 47 H 5.859770 7.049289 -17.186654 0
M  V30 48 H 10.265940 8.665650 -8.172366 0
M  V30 49 H 8.634934 8.101010 -7.996138 0
M  V30 50 H 5.829483 7.419601 -14.262509 0
M  V30 END ATOM
M  V30 BEGIN BOND
M  V30 1 1 4 3
M  V30 2 1 9 6
M  V30 3 1 10 5
M  V30 4 1 10 7
M  V30 5 1 11 1
M  V30 6 1 12 2
M  V30 7 1 13 3
M  V30 8 2 14 11
M  V30 9 1 14 12
M  V30 10 1 15 2
M  V30 11 1 15 11
M  V30 12 1 16 9
M  V30 13 1 16 13
M  V30 14 1 17 15
M  V30 15 2 18 16
M  V30 16 1 19 17
M  V30 17 1 20 1
M  V30 18 1 20 7
M  V30 19 1 20 17
M  V30 20 1 21 6
M  V30 21 2 21 8
M  V30 22 1 21 13
M  V30 23 1 22 5
M  V30 24 1 23 4
M  V30 25 1 23 12
M  V30 26 1 24 1
M  V30 27 1 25 1
M  V30 28 1 26 3
M  V30 29 1 27 3
M  V30 30 1 28 4
M  V30 31 1 29 4
M  V30 32 1 30 5
M  V30 33 1 31 6
M  V30 34 1 32 6
M  V30 35 1 33 7
M  V30 36 1 34 7
M  V30 37 1 35 9
M  V30 38 1 36 9
M  V30 39 1 37 10
M  V30 40 1 38 10
M  V30 41 1 12 39 CFG=3
M  V30 42 1 40 14
M  V30 43 1 15 41 CFG=3
M  V30 44 1 17 42 CFG=1
M  V30 45 1 43 19
M  V30 46 1 20 44 CFG=3
M  V30 47 1 45 22
M  V30 48 1 46 22
M  V30 49 1 47 22
M  V30 50 1 48 23
M  V30 51 1 49 23
M  V30 52 1 50 5
M  V30 END BOND
M  V30 END CTAB
M  END
>  <i_epik_Tot_Q>  (1) 
1

>  <i_epik_Tot_abs_Q>  (1) 
1

>  <i_i_glide_confnum>  (1) 
256

>  <i_i_glide_lignum>  (1) 
68

>  <i_i_glide_posenum>  (1) 
80

>  <i_i_glide_rotatable_bonds>  (1) 
8

>  <i_lp_mmshare_version>  (1) 
72125

>  <i_m_source_file_index>  (1) 
39

>  <i_f3d_flags>  (1) 
0

>  <num_sample>  (1) 
100

>  <b_lp_Chiralities_Consistent>  (1) 
1

>  <r_epik_Charging_Adjusted_Penalty>  (1) 
0.00073389509714513615

>  <r_epik_Ionization_Penalty>  (1) 
0.00073402386584221085

>  <r_epik_Ionization_Penalty_Charging>  (1) 
0.00073389509714513615

>  <r_epik_Ionization_Penalty_Neutral>  (1) 
1.2876869707468429e-07

>  <r_epik_State_Penalty>  (1) 
-0

>  <r_glide_ring_energy>  (1) 
0

>  <r_i_docking_score>  (1) 
-5.3976924642826312

>  <r_i_glide_ecoul>  (1) 
-1.0361445270865397

>  <r_i_glide_eff_state_penalty>  (1) 
-0

>  <r_i_glide_einternal>  (1) 
8.7113965727843095

>  <r_i_glide_emodel>  (1) 
-45.255267513632283

>  <r_i_glide_emodel_strain>  (1) 
0.79623392099020407

>  <r_i_glide_energy>  (1) 
-36.264457901724327

>  <r_i_glide_erotb>  (1) 
0.82107344862339093

>  <r_i_glide_esite>  (1) 
0

>  <r_i_glide_evdw>  (1) 
-35.228313374637786

>  <r_i_glide_gscore>  (1) 
-5.3976924642826312

>  <r_i_glide_gscore_strain>  (1) 
0

>  <r_i_glide_hbond>  (1) 
0

>  <r_i_glide_ligand_efficiency>  (1) 
-0.23468228105576658

>  <r_i_glide_ligand_efficiency_ln>  (1) 
-1.3052109814328188

>  <r_i_glide_ligand_efficiency_sa>  (1) 
-0.66740518985073916

>  <r_i_glide_lipo>  (1) 
-1.4573126885132575

>  <r_i_glide_metal>  (1) 
-0

>  <r_i_glide_rewards>  (1) 
-2.8446158765978948

>  <r_lp_Energy>  (1) 
9.7708929999999992

>  <r_lp_tautomer_probability>  (1) 
1

>  <s_epik_cmdline>  (1) 
J2VwaWtfcHl0aG9uJywgJy1waHQnLCAnMS4wJywgJy1waCcsICc3LjQnLCAnLXRuJywgJzgnLCAnLW1hJywgJzUwMCcsICctaW1hZScsICc8aW5maWxlLm1hZT4nLCAnLW9tYWUnLCAnPG91dGZpbGUubWFlPic=

>  <s_epik_input>  (1) 
W0NIM11bTkhdW0NIMl1bQ0gyXVtDQEhdKFtDSDJdMSlbQ0BASF0oW09IXSlbQ0BASF0oQzE9MilTW0NAQEhdKFtDSF0yKVtDSDJdW0NIMl1bQ0gyXU4zQyg9TylbQ0gyXVtDSDJdQzM9Tw==

>  <s_glide_docking_method>  (1) 
confgen

>  <s_i_glide_gridfile>  (1) 
gpcr_drd2_6luq_protein_autoprepared_prepared

>  <s_lp_Force_Field>  (1) 
S-OPLS

>  <s_lp_Variant>  (1) 
DiffSBDD_38_num_sample_100-1

>  <s_m_source_file>  (1) 
generated__ligand_DiffSBDD_2026-05-06_prepared.sdf

>  <GenAI_Model>  (1) 
DiffSBDD

>  <Protein>  (1) 
generic_title2

$$$$
DiffSBDD_44_num_sample_100
     RDKit          3D

  0  0  0  0  0  0  0  0  0  0999 V3000
M  V30 BEGIN CTAB
M  V30 COUNTS 56 58 0 0 1
M  V30 BEGIN ATOM
M  V30 1 C 6.503665 3.633033 -13.590808 0
M  V30 2 C 6.894002 5.065629 -13.188019 0 CFG=1
M  V30 3 C 11.480893 9.233603 -4.361804 0
M  V30 4 C 12.234449 7.178322 -2.594714 0
M  V30 5 C 11.834838 6.861632 -3.891640 0
M  V30 6 C 9.805740 8.048855 -10.804097 0
M  V30 7 C 6.999377 5.990170 -14.394244 0
M  V30 8 N 5.777574 5.763932 -12.477718 0 CFG=2 CHG=1
M  V30 9 C 9.995112 8.482421 -9.347240 0
M  V30 10 C 11.310212 8.294548 -7.194368 0
M  V30 11 O 11.747758 9.438188 -7.157825 0
M  V30 12 C 12.234834 8.513224 -2.158187 0
M  V30 13 N 12.634833 6.169295 -1.747236 0
M  V30 14 C 6.413728 7.369263 -14.205557 0
M  V30 15 N 11.133716 7.512786 -6.138997 0
M  V30 16 C 9.712339 6.548189 -11.096896 0
M  V30 17 O 8.798156 4.093467 -12.064803 0
M  V30 18 C 10.329065 6.309448 -7.931515 0
M  V30 19 C 5.797574 7.223402 -12.800412 0
M  V30 20 N 8.603112 6.341068 -11.979962 0
M  V30 21 C 5.558490 5.445142 -11.040741 0
M  V30 22 C 10.945218 7.629363 -8.500969 0 CFG=1
M  V30 23 C 10.745080 6.169303 -6.454085 0
M  V30 24 C 11.475538 7.878838 -4.792830 0
M  V30 25 C 8.198590 5.125366 -12.364897 0
M  V30 26 C 11.845133 9.537554 -3.035871 0
M  V30 27 O 7.520334 5.639111 -15.450603 0
M  V30 28 H 7.328226 3.109987 -14.077810 0
M  V30 29 H 6.196598 3.036520 -12.731301 0
M  V30 30 H 5.676769 3.659107 -14.291657 0
M  V30 31 H 11.191999 10.029891 -5.027529 0
M  V30 32 H 11.835640 5.830554 -4.208746 0
M  V30 33 H 8.933034 8.581262 -11.186976 0
M  V30 34 H 10.634838 8.416420 -11.384970 0
M  V30 35 H 9.034836 8.549207 -8.842620 0
M  V30 36 H 10.376680 9.498806 -9.390834 0
M  V30 37 H 12.533872 8.754333 -1.148248 0
M  V30 38 H 12.759836 6.352396 -0.763618 0
M  V30 39 H 12.436842 5.206661 -1.987378 0
M  V30 40 H 7.186521 8.137223 -14.256189 0
M  V30 41 H 5.659298 7.561553 -14.969143 0
M  V30 42 H 10.634819 6.169252 -11.535357 0
M  V30 43 H 9.475110 5.962381 -10.218338 0
M  V30 44 H 9.238943 6.354300 -7.979447 0
M  V30 45 H 10.634846 5.423288 -8.485082 0
M  V30 46 H 6.396390 7.768086 -12.067955 0
M  V30 47 H 4.803016 7.660947 -12.742742 0
M  V30 48 H 8.069930 7.150000 -12.255786 0
M  V30 49 H 6.379778 5.769304 -10.401704 0
M  V30 50 H 4.651226 5.933335 -10.682141 0
M  V30 51 H 5.434329 4.372365 -10.894445 0
M  V30 52 H 11.871598 7.427119 -9.039789 0
M  V30 53 H 11.601588 5.498937 -6.369799 0
M  V30 54 H 9.925422 5.819086 -5.828087 0
M  V30 55 H 11.834599 10.558330 -2.691693 0
M  V30 56 H 4.953212 5.424705 -12.950409 0
M  V30 END ATOM
M  V30 BEGIN BOND
M  V30 1 1 2 1 CFG=3
M  V30 2 2 5 4
M  V30 3 1 7 2
M  V30 4 1 8 2
M  V30 5 1 9 6
M  V30 6 2 11 10
M  V30 7 1 12 4
M  V30 8 1 13 4
M  V30 9 1 14 7
M  V30 10 1 15 10
M  V30 11 1 16 6
M  V30 12 1 19 8
M  V30 13 1 19 14
M  V30 14 1 20 16
M  V30 15 1 21 8
M  V30 16 1 22 9
M  V30 17 1 22 10
M  V30 18 1 22 18
M  V30 19 1 23 15
M  V30 20 1 23 18
M  V30 21 2 24 3
M  V30 22 1 24 5
M  V30 23 1 24 15
M  V30 24 1 25 2
M  V30 25 2 25 17
M  V30 26 1 25 20
M  V30 27 1 26 3
M  V30 28 2 26 12
M  V30 29 2 27 7
M  V30 30 1 28 1
M  V30 31 1 29 1
M  V30 32 1 30 1
M  V30 33 1 31 3
M  V30 34 1 32 5
M  V30 35 1 33 6
M  V30 36 1 34 6
M  V30 37 1 35 9
M  V30 38 1 36 9
M  V30 39 1 37 12
M  V30 40 1 38 13
M  V30 41 1 39 13
M  V30 42 1 40 14
M  V30 43 1 41 14
M  V30 44 1 42 16
M  V30 45 1 43 16
M  V30 46 1 44 18
M  V30 47 1 45 18
M  V30 48 1 46 19
M  V30 49 1 47 19
M  V30 50 1 48 20
M  V30 51 1 49 21
M  V30 52 1 50 21
M  V30 53 1 51 21
M  V30 54 1 22 52 CFG=3
M  V30 55 1 53 23
M  V30 56 1 54 23
M  V30 57 1 55 26
M  V30 58 1 8 56 CFG=3
M  V30 END BOND
M  V30 END CTAB
M  END
>  <i_epik_Tot_Q>  (1) 
1

>  <i_epik_Tot_abs_Q>  (1) 
1

>  <i_i_glide_confnum>  (1) 
12

>  <i_i_glide_lignum>  (1) 
78

>  <i_i_glide_posenum>  (1) 
340

>  <i_i_glide_rotatable_bonds>  (1) 
7

>  <i_lp_mmshare_version>  (1) 
72125

>  <i_m_source_file_index>  (1) 
45

>  <i_f3d_flags>  (1) 
0

>  <num_sample>  (1) 
100

>  <b_lp_Chiralities_Consistent>  (1) 
1

>  <r_epik_Charging_Adjusted_Penalty>  (1) 
0.87787264938008924

>  <r_epik_Ionization_Penalty>  (1) 
0.44040452980928141

>  <r_epik_Ionization_Penalty_Charging>  (1) 
0.43893632469004462

>  <r_epik_Ionization_Penalty_Neutral>  (1) 
0.0014682051192367804

>  <r_epik_State_Penalty>  (1) 
0.43893632469004457

>  <r_glide_ring_energy>  (1) 
0

>  <r_i_docking_score>  (1) 
-5.3921896704897607

>  <r_i_glide_ecoul>  (1) 
-3.6351042194337913

>  <r_i_glide_eff_state_penalty>  (1) 
0.43893632469004457

>  <r_i_glide_einternal>  (1) 
11.477220845439358

>  <r_i_glide_emodel>  (1) 
-42.143758713095245

>  <r_i_glide_emodel_strain>  (1) 
2.1123765517822193

>  <r_i_glide_energy>  (1) 
-38.580491152082132

>  <r_i_glide_erotb>  (1) 
0.96983297192060391

>  <r_i_glide_esite>  (1) 
-0.054748533954105977

>  <r_i_glide_evdw>  (1) 
-34.94538693264834

>  <r_i_glide_gscore>  (1) 
-5.8311259951798053

>  <r_i_glide_gscore_strain>  (1) 
0

>  <r_i_glide_hbond>  (1) 
0

>  <r_i_glide_ligand_efficiency>  (1) 
-0.19971072853665781

>  <r_i_glide_ligand_efficiency_ln>  (1) 
-1.255212858095605

>  <r_i_glide_ligand_efficiency_sa>  (1) 
-0.5991321856099735

>  <r_i_glide_lipo>  (1) 
-2.0981178006768086

>  <r_i_glide_metal>  (1) 
-0

>  <r_i_glide_rewards>  (1) 
-2.3555576529220081

>  <r_lp_Energy>  (1) 
34.183026999999996

>  <r_lp_tautomer_probability>  (1) 
0.99995000000000001

>  <s_epik_cmdline>  (1) 
J2VwaWtfcHl0aG9uJywgJy1waHQnLCAnMS4wJywgJy1waCcsICc3LjQnLCAnLXRuJywgJzgnLCAnLW1hJywgJzUwMCcsICctaW1hZScsICc8aW5maWxlLm1hZT4nLCAnLW9tYWUnLCAnPG91dGZpbGUubWFlPic=

>  <s_epik_input>  (1) 
W0NIM11OMVtDSDJdW0NIMl1DKD1PKVtDQEBdMShbQ0gzXSlDKD1PKVtOSF1bQ0gyXVtDSDJdW0NIMl1bQ0BASF0yW0NIMl1bQ0gyXU4oQzI9TyljKFtjSF1bY0hdW2NIXTMpW2NIXWMzW05IMl0=

>  <s_glide_docking_method>  (1) 
confgen

>  <s_i_glide_gridfile>  (1) 
gpcr_drd2_6luq_protein_autoprepared_prepared

>  <s_lp_Force_Field>  (1) 
S-OPLS

>  <s_lp_Variant>  (1) 
DiffSBDD_44_num_sample_100-3

>  <s_m_source_file>  (1) 
generated__ligand_DiffSBDD_2026-05-06_prepared.sdf

>  <GenAI_Model>  (1) 
DiffSBDD

>  <Protein>  (1) 
generic_title2

$$$$
DiffSBDD_75_num_sample_100
     RDKit          3D

  0  0  0  0  0  0  0  0  0  0999 V3000
M  V30 BEGIN CTAB
M  V30 COUNTS 76 81 0 0 1
M  V30 BEGIN ATOM
M  V30 1 C 7.006497 1.991955 -13.094387 0
M  V30 2 C 6.836289 3.401431 -12.542894 0
M  V30 3 C 9.834732 6.424937 -10.915736 0
M  V30 4 C 10.809071 8.075009 -6.332768 0 CFG=2
M  V30 5 F 7.034183 8.077081 -15.091688 0
M  V30 6 C 8.181682 1.761153 -14.037437 0
M  V30 7 C 8.071669 4.180131 -14.789348 0 CFG=1
M  V30 8 N 6.912141 5.867938 -13.283412 0
M  V30 9 O 13.434837 8.569349 -11.182538 0 CHG=-1
M  V30 10 C 8.122119 2.684973 -15.296692 0 CFG=2
M  V30 11 C 6.610260 0.475621 -18.984494 0 CFG=1
M  V30 12 N 13.020981 8.329017 -10.054492 0 CHG=1
M  V30 13 C 9.201952 6.408113 -7.275661 0
M  V30 14 O 13.641163 8.569293 -9.028684 0
M  V30 15 C 8.077434 5.322996 -15.855831 0
M  V30 16 C 11.694924 7.649920 -9.930740 0
M  V30 17 C 6.232765 1.831744 -18.438499 0 CFG=1
M  V30 18 C 10.109330 6.735542 -6.077234 0
M  V30 19 C 6.003319 0.593349 -17.606381 0 CFG=2
M  V30 20 C 7.865744 6.551321 -12.563475 0
M  V30 21 N 11.677868 7.937041 -7.483508 0
M  V30 22 C 6.720616 6.013369 -16.217325 0
M  V30 23 N 7.034834 2.268967 -16.233657 0 CFG=1 CHG=1
M  V30 24 C 7.155283 2.729756 -17.641528 0
M  V30 25 C 5.882176 -0.148460 -20.154560 0
M  V30 26 O 6.235037 1.085565 -12.794985 0
M  V30 27 C 5.768120 6.579996 -13.838159 0
M  V30 28 O 7.997212 0.211063 -18.981854 0
M  V30 29 C 6.158265 7.086830 -15.238185 0 CFG=1
M  V30 30 O 7.748037 7.746789 -12.291636 0
M  V30 31 O 11.034842 9.769651 -4.592307 0
M  V30 32 C 6.770781 0.804542 -16.322992 0
M  V30 33 C 9.879449 6.691907 -8.610796 0
M  V30 34 C 11.030872 7.162148 -11.080568 0
M  V30 35 N 9.276970 6.169437 -9.707829 0
M  V30 36 C 9.137824 5.797922 -12.124517 0
M  V30 37 C 11.637890 8.623887 -5.144313 0
M  V30 38 C 11.087280 7.434399 -8.661356 0
M  V30 39 C 7.012919 4.437897 -13.678332 0 CFG=2
M  V30 40 H 7.525625 3.523131 -11.717320 0
M  V30 41 H 5.839420 3.492106 -12.110564 0
M  V30 42 H 10.050474 8.816062 -6.595004 0
M  V30 43 H 9.042723 2.003384 -13.428687 0
M  V30 44 H 8.277921 0.703485 -14.278824 0
M  V30 45 H 9.040949 4.274970 -14.305701 0
M  V30 46 H 9.030299 2.541735 -15.891649 0
M  V30 47 H 8.304107 7.017436 -7.219766 0
M  V30 48 H 8.878059 5.369308 -7.236425 0
M  V30 49 H 8.562629 4.963564 -16.762905 0
M  V30 50 H 8.744713 6.107274 -15.499367 0
M  V30 51 H 5.337274 2.309323 -18.832863 0
M  V30 52 H 10.860045 5.953222 -5.958295 0
M  V30 53 H 9.531360 6.745992 -5.157515 0
M  V30 54 H 4.981580 0.239837 -17.488070 0
M  V30 55 H 12.461831 8.573327 -7.570314 0
M  V30 56 H 5.942617 5.277749 -16.392010 0
M  V30 57 H 6.861871 6.509210 -17.178488 0
M  V30 58 H 6.856556 3.765108 -17.776798 0
M  V30 59 H 8.176439 2.624152 -18.010039 0
M  V30 60 H 4.817120 0.084272 -20.109724 0
M  V30 61 H 6.274651 0.237125 -21.095571 0
M  V30 62 H 5.996943 -1.232544 -20.144299 0
M  V30 63 H 4.903028 5.922134 -13.897817 0
M  V30 64 H 5.446581 7.406072 -13.201124 0
M  V30 65 H 8.124157 -0.722449 -19.071322 0
M  V30 66 H 5.283688 7.553125 -15.692337 0
M  V30 67 H 10.983455 10.432213 -5.264507 0
M  V30 68 H 7.699780 0.232891 -16.364755 0
M  V30 69 H 6.183763 0.444045 -15.477928 0
M  V30 70 H 11.455510 7.301092 -12.062006 0
M  V30 71 H 9.836555 5.832754 -12.959432 0
M  V30 72 H 9.002007 4.751655 -11.896959 0
M  V30 73 H 12.627452 8.969278 -5.454563 0
M  V30 74 H 11.781921 7.869709 -4.370039 0
M  V30 75 H 6.097561 4.238108 -14.235448 0
M  V30 76 H 6.174495 2.663612 -15.882311 0
M  V30 END ATOM
M  V30 BEGIN BOND
M  V30 1 1 2 1
M  V30 2 1 6 1
M  V30 3 1 10 6
M  V30 4 1 10 7
M  V30 5 1 12 9
M  V30 6 2 14 12
M  V30 7 1 15 7
M  V30 8 1 16 12
M  V30 9 1 17 11
M  V30 10 1 18 4
M  V30 11 1 18 13
M  V30 12 1 19 11
M  V30 13 1 19 17
M  V30 14 1 20 8
M  V30 15 1 21 4
M  V30 16 1 22 15
M  V30 17 1 23 10
M  V30 18 1 24 17
M  V30 19 1 24 23
M  V30 20 1 25 11
M  V30 21 2 26 1
M  V30 22 1 27 8
M  V30 23 1 11 28 CFG=1
M  V30 24 1 29 5
M  V30 25 1 29 22
M  V30 26 1 29 27
M  V30 27 2 30 20
M  V30 28 1 32 19
M  V30 29 1 32 23
M  V30 30 1 33 13
M  V30 31 2 34 3
M  V30 32 1 34 16
M  V30 33 1 35 3
M  V30 34 2 35 33
M  V30 35 1 36 3
M  V30 36 1 36 20
M  V30 37 1 37 4
M  V30 38 1 37 31
M  V30 39 2 38 16
M  V30 40 1 38 21
M  V30 41 1 38 33
M  V30 42 1 39 2
M  V30 43 1 39 7
M  V30 44 1 39 8
M  V30 45 1 40 2
M  V30 46 1 41 2
M  V30 47 1 4 42 CFG=3
M  V30 48 1 43 6
M  V30 49 1 44 6
M  V30 50 1 7 45 CFG=1
M  V30 51 1 10 46 CFG=3
M  V30 52 1 47 13
M  V30 53 1 48 13
M  V30 54 1 49 15
M  V30 55 1 50 15
M  V30 56 1 17 51 CFG=3
M  V30 57 1 52 18
M  V30 58 1 53 18
M  V30 59 1 19 54 CFG=1
M  V30 60 1 55 21
M  V30 61 1 56 22
M  V30 62 1 57 22
M  V30 63 1 58 24
M  V30 64 1 59 24
M  V30 65 1 60 25
M  V30 66 1 61 25
M  V30 67 1 62 25
M  V30 68 1 63 27
M  V30 69 1 64 27
M  V30 70 1 65 28
M  V30 71 1 29 66 CFG=3
M  V30 72 1 67 31
M  V30 73 1 68 32
M  V30 74 1 69 32
M  V30 75 1 70 34
M  V30 76 1 71 36
M  V30 77 1 72 36
M  V30 78 1 73 37
M  V30 79 1 74 37
M  V30 80 1 39 75 CFG=3
M  V30 81 1 23 76 CFG=1
M  V30 END BOND
M  V30 END CTAB
M  END
>  <i_epik_Tot_Q>  (1) 
1

>  <i_epik_Tot_abs_Q>  (1) 
3

>  <i_i_glide_confnum>  (1) 
173

>  <i_i_glide_lignum>  (1) 
151

>  <i_i_glide_posenum>  (1) 
386

>  <i_i_glide_rotatable_bonds>  (1) 
8

>  <i_lp_mmshare_version>  (1) 
72125

>  <i_m_source_file_index>  (1) 
76

>  <i_f3d_flags>  (1) 
0

>  <num_sample>  (1) 
100

>  <b_lp_Chiralities_Consistent>  (1) 
1

>  <r_epik_Charging_Adjusted_Penalty>  (1) 
0.015891369841317948

>  <r_epik_Ionization_Penalty>  (1) 
0.0079711574059170582

>  <r_epik_Ionization_Penalty_Charging>  (1) 
0.0079456849206589655

>  <r_epik_Ionization_Penalty_Neutral>  (1) 
2.5472485258093083e-05

>  <r_epik_State_Penalty>  (1) 
0.0079456849206589828

>  <r_glide_ring_energy>  (1) 
0

>  <r_i_docking_score>  (1) 
-5.3911401716809912

>  <r_i_glide_ecoul>  (1) 
-0.67585861659273361

>  <r_i_glide_eff_state_penalty>  (1) 
0.0079456849206589828

>  <r_i_glide_einternal>  (1) 
4.1039849097190064

>  <r_i_glide_emodel>  (1) 
-32.700594941313497

>  <r_i_glide_emodel_strain>  (1) 
2.0711896924722026

>  <r_i_glide_energy>  (1) 
-34.529998273307683

>  <r_i_glide_erotb>  (1) 
0.34657339541443727

>  <r_i_glide_esite>  (1) 
-0.10483494886938255

>  <r_i_glide_evdw>  (1) 
-33.854139656714949

>  <r_i_glide_gscore>  (1) 
-5.3990858566016504

>  <r_i_glide_gscore_strain>  (1) 
0

>  <r_i_glide_hbond>  (1) 
0

>  <r_i_glide_ligand_efficiency>  (1) 
-0.13823436337643566

>  <r_i_glide_ligand_efficiency_ln>  (1) 
-1.1560134894228689

>  <r_i_glide_ligand_efficiency_sa>  (1) 
-0.46878195489994717

>  <r_i_glide_lipo>  (1) 
-2.5194227817250652

>  <r_i_glide_metal>  (1) 
-0

>  <r_i_glide_rewards>  (1) 
-1.3273157460969833

>  <r_lp_Energy>  (1) 
44.445350999999995

>  <r_lp_tautomer_probability>  (1) 
0.99999997999999912

>  <s_epik_cmdline>  (1) 
J2VwaWtfcHl0aG9uJywgJy1waHQnLCAnMS4wJywgJy1waCcsICc3LjQnLCAnLXRuJywgJzgnLCAnLW1hJywgJzUwMCcsICctaW1hZScsICc8aW5maWxlLm1hZT4nLCAnLW9tYWUnLCAnPG91dGZpbGUubWFlPic=

>  <s_epik_input>  (1) 
W0NIM11bQ0BdMShbT0hdKVtDQEhdKFtDQEhdMTIpW0NIMl1OKFtDSDJdMilbQ0BASF0zW0NIMl1DKD1PKVtDSDJdW0NASF0oW0NAQEhdMzQpTihbQ0gyXVtDQEBIXShGKVtDSDJdW0NIMl00KUMoPU8pW0NIMl1jKG41KVtjSF1jKFtOK10oW08tXSk9TyljKGM1NilbTkhdW0NAQEhdKFtDSDJdW0NIMl02KVtDSDJdW09IXQ==

>  <s_glide_docking_method>  (1) 
confgen

>  <s_i_glide_gridfile>  (1) 
gpcr_drd2_6luq_protein_autoprepared_prepared

>  <s_lp_Force_Field>  (1) 
S-OPLS

>  <s_lp_Variant>  (1) 
DiffSBDD_75_num_sample_100-2

>  <s_m_source_file>  (1) 
generated__ligand_DiffSBDD_2026-05-06_prepared.sdf

>  <GenAI_Model>  (1) 
DiffSBDD

>  <Protein>  (1) 
generic_title2

$$$$
DiffSBDD_17_num_sample_100
     RDKit          3D

  0  0  0  0  0  0  0  0  0  0999 V3000
M  V30 BEGIN CTAB
M  V30 COUNTS 55 57 0 0 1
M  V30 BEGIN ATOM
M  V30 1 N 7.011610 4.743016 -14.461943 0
M  V30 2 C 8.363212 4.829209 -11.622382 0
M  V30 3 C 12.660125 9.369484 -5.204457 0
M  V30 4 C 9.761711 6.636238 -7.706422 0
M  V30 5 C 10.568951 7.187407 -8.757130 0
M  V30 6 C 6.834108 6.177546 -18.032550 0
M  V30 7 N 12.714711 9.369267 -6.691443 0
M  V30 8 C 5.455109 6.849402 -17.893285 0
M  V30 9 C 11.034556 7.979143 -6.124357 0
M  V30 10 F 6.091639 8.459787 -16.290436 0
M  V30 11 N 8.865950 5.358440 -10.371511 0
M  V30 12 C 5.432135 6.418078 -15.388735 0
M  V30 13 C 7.246329 5.391976 -16.796055 0
M  V30 14 C 11.773698 8.488128 -7.112035 0
M  V30 15 O 7.562051 2.510340 -14.854975 0
M  V30 16 C 7.088138 5.572846 -12.068668 0 CFG=2
M  V30 17 C 6.623835 5.489990 -15.597041 0
M  V30 18 C 6.321004 4.801232 -13.166693 0
M  V30 19 C 8.300841 5.104486 -9.141613 0
M  V30 20 C 7.357903 7.048368 -12.423165 0
M  V30 21 C 10.015402 7.049866 -6.372260 0
M  V30 22 C 11.405392 8.466484 -4.766190 0
M  V30 23 N 8.087844 3.846936 -14.609024 0
M  V30 24 C 11.582768 8.118719 -8.446489 0
M  V30 25 C 5.243727 7.456797 -16.500922 0 CFG=2
M  V30 26 C 8.665414 5.643625 -7.953358 0
M  V30 27 H 8.160966 3.765171 -11.494519 0
M  V30 28 H 9.145050 4.915171 -12.377255 0
M  V30 29 H 12.517976 10.379185 -4.842598 0
M  V30 30 H 13.588928 8.997479 -4.770670 0
M  V30 31 H 10.420535 6.912118 -9.775887 0
M  V30 32 H 7.601082 6.922659 -18.243364 0
M  V30 33 H 6.826181 5.501699 -18.888539 0
M  V30 34 H 13.608324 9.381188 -7.164004 0
M  V30 35 H 5.326747 7.610894 -18.663471 0
M  V30 36 H 4.676623 6.104862 -18.067948 0
M  V30 37 H 4.564326 5.769396 -15.377658 0
M  V30 38 H 5.461212 6.939530 -14.436177 0
M  V30 39 H 8.086321 4.726080 -16.916721 0
M  V30 40 H 8.093640 1.989305 -14.270826 0
M  V30 41 H 6.422824 5.585749 -11.203096 0
M  V30 42 H 5.305438 5.182989 -13.247523 0
M  V30 43 H 6.178133 3.776039 -12.825116 0
M  V30 44 H 7.484664 4.395863 -9.193629 0
M  V30 45 H 7.929176 7.146223 -13.345710 0
M  V30 46 H 6.425678 7.598461 -12.538093 0
M  V30 47 H 7.914279 7.551934 -11.631966 0
M  V30 48 H 9.433135 6.648917 -5.555390 0
M  V30 49 H 10.635104 9.116139 -4.374963 0
M  V30 50 H 11.657291 7.663370 -4.073452 0
M  V30 51 H 8.572422 4.016904 -15.487937 0
M  V30 52 H 12.195429 8.543112 -9.229050 0
M  V30 53 H 4.250419 7.900992 -16.432809 0
M  V30 54 H 8.115230 5.339637 -7.080843 0
M  V30 55 H 9.600915 6.041132 -10.432809 0
M  V30 END ATOM
M  V30 BEGIN BOND
M  V30 1 1 5 4
M  V30 2 1 7 3
M  V30 3 1 8 6
M  V30 4 1 11 2
M  V30 5 1 13 6
M  V30 6 1 14 7
M  V30 7 2 14 9
M  V30 8 1 16 2
M  V30 9 1 17 1
M  V30 10 1 17 12
M  V30 11 2 17 13
M  V30 12 1 18 1
M  V30 13 1 18 16
M  V30 14 1 19 11
M  V30 15 1 20 16
M  V30 16 2 21 4
M  V30 17 1 21 9
M  V30 18 1 22 3
M  V30 19 1 22 9
M  V30 20 1 23 1
M  V30 21 1 23 15
M  V30 22 2 24 5
M  V30 23 1 24 14
M  V30 24 1 25 8
M  V30 25 1 25 10
M  V30 26 1 25 12
M  V30 27 1 26 4
M  V30 28 2 26 19
M  V30 29 1 27 2
M  V30 30 1 28 2
M  V30 31 1 29 3
M  V30 32 1 30 3
M  V30 33 1 31 5
M  V30 34 1 32 6
M  V30 35 1 33 6
M  V30 36 1 34 7
M  V30 37 1 35 8
M  V30 38 1 36 8
M  V30 39 1 37 12
M  V30 40 1 38 12
M  V30 41 1 39 13
M  V30 42 1 40 15
M  V30 43 1 16 41 CFG=1
M  V30 44 1 42 18
M  V30 45 1 43 18
M  V30 46 1 44 19
M  V30 47 1 45 20
M  V30 48 1 46 20
M  V30 49 1 47 20
M  V30 50 1 48 21
M  V30 51 1 49 22
M  V30 52 1 50 22
M  V30 53 1 51 23
M  V30 54 1 52 24
M  V30 55 1 25 53 CFG=3
M  V30 56 1 54 26
M  V30 57 1 55 11
M  V30 END BOND
M  V30 END CTAB
M  END
>  <i_epik_Tot_Q>  (1) 
0

>  <i_epik_Tot_abs_Q>  (1) 
0

>  <i_i_glide_confnum>  (1) 
282

>  <i_i_glide_lignum>  (1) 
28

>  <i_i_glide_posenum>  (1) 
261

>  <i_i_glide_rotatable_bonds>  (1) 
9

>  <i_lp_mmshare_version>  (1) 
72125

>  <i_m_source_file_index>  (1) 
18

>  <i_f3d_flags>  (1) 
0

>  <num_sample>  (1) 
100

>  <b_lp_Chiralities_Consistent>  (1) 
1

>  <r_epik_Charging_Adjusted_Penalty>  (1) 
0

>  <r_epik_Ionization_Penalty>  (1) 
0.026997388265497368

>  <r_epik_Ionization_Penalty_Charging>  (1) 
0

>  <r_epik_Ionization_Penalty_Neutral>  (1) 
0.026997388265497368

>  <r_epik_State_Penalty>  (1) 
-0

>  <r_glide_ring_energy>  (1) 
0.25248745697502767

>  <r_i_docking_score>  (1) 
-5.3910633777802719

>  <r_i_glide_ecoul>  (1) 
0.43877712448772732

>  <r_i_glide_eff_state_penalty>  (1) 
-0

>  <r_i_glide_einternal>  (1) 
5.7398637133352697

>  <r_i_glide_emodel>  (1) 
-40.63149451313155

>  <r_i_glide_emodel_strain>  (1) 
0

>  <r_i_glide_energy>  (1) 
-31.557022788590427

>  <r_i_glide_erotb>  (1) 
0.88558064458011865

>  <r_i_glide_esite>  (1) 
-0.033750507327247041

>  <r_i_glide_evdw>  (1) 
-31.995799913078155

>  <r_i_glide_gscore>  (1) 
-5.3910633777802719

>  <r_i_glide_gscore_strain>  (1) 
0

>  <r_i_glide_hbond>  (1) 
0

>  <r_i_glide_ligand_efficiency>  (1) 
-0.20734859145308737

>  <r_i_glide_ligand_efficiency_ln>  (1) 
-1.2660735447499323

>  <r_i_glide_ligand_efficiency_sa>  (1) 
-0.61426938696957756

>  <r_i_glide_lipo>  (1) 
-2.618172117240309

>  <r_i_glide_metal>  (1) 
-0

>  <r_i_glide_rewards>  (1) 
-2.0907479708120862

>  <r_lp_Energy>  (1) 
11.300393999999999

>  <r_lp_tautomer_probability>  (1) 
1

>  <s_epik_Chemistry_Notes>  (1) 
This compound has a N-S or N-O group and may undergo hydrolysis at high or low pH.

>  <s_epik_cmdline>  (1) 
J2VwaWtfcHl0aG9uJywgJy1waHQnLCAnMS4wJywgJy1waCcsICc3LjQnLCAnLXRuJywgJzgnLCAnLW1hJywgJzUwMCcsICctaW1hZScsICc8aW5maWxlLm1hZT4nLCAnLW9tYWUnLCAnPG91dGZpbGUubWFlPic=

>  <s_epik_input>  (1) 
RltDQEhdKFtDSDJdMSlbQ0gyXVtDSDJdW0NIXT1DMU4oW05IXVtPSF0pW0NIMl1bQ0BIXShbQ0gzXSlbQ0gyXVtOSF0vW0NIXT1bQ0hdXGMoW2NIXTIpW2NIXVtjSF1jKGMyMylbTkhdW0NIMl1bQ0gyXTM=

>  <s_glide_docking_method>  (1) 
confgen

>  <s_i_glide_gridfile>  (1) 
gpcr_drd2_6luq_protein_autoprepared_prepared

>  <s_lp_Force_Field>  (1) 
S-OPLS

>  <s_lp_Variant>  (1) 
DiffSBDD_17_num_sample_100-1

>  <s_m_source_file>  (1) 
generated__ligand_DiffSBDD_2026-05-06_prepared.sdf

>  <GenAI_Model>  (1) 
DiffSBDD

>  <Protein>  (1) 
generic_title2

$$$$
DiffSBDD_79_num_sample_100
     RDKit          3D

  0  0  0  0  0  0  0  0  0  0999 V3000
M  V30 BEGIN CTAB
M  V30 COUNTS 55 58 0 0 1
M  V30 BEGIN ATOM
M  V30 1 C 6.970871 0.626501 -15.529074 0
M  V30 2 C 7.226895 2.566507 -13.902242 0
M  V30 3 O 8.605103 4.458744 -16.746134 0
M  V30 4 C 11.329262 8.706974 -7.252478 0
M  V30 5 C 10.850313 7.468323 -7.484947 0
M  V30 6 C 8.478733 4.264392 -15.516319 0
M  V30 7 C 7.566744 5.061329 -10.101902 0
M  V30 8 C 9.829561 5.940007 -9.417343 0 CFG=1
M  V30 9 C 11.362264 9.419014 -5.941396 0
M  V30 10 C 8.533733 5.369300 -8.926613 0
M  V30 11 S 6.553030 0.982304 -13.765053 0
M  V30 12 C 11.497427 7.469177 -4.355734 0
M  V30 13 C 10.350552 6.569294 -6.424705 0
M  V30 14 F 11.983567 7.032374 -3.180225 0
M  V30 15 C 9.750257 7.358779 -9.888072 0 CFG=1
M  V30 16 C 11.834836 8.693684 -4.736807 0
M  V30 17 C 10.831733 6.969441 -8.899201 0 CFG=1
M  V30 18 C 5.507902 5.013739 -12.199410 0
M  V30 19 O 8.899882 4.981453 -14.589540 0 CHG=-1
M  V30 20 C 7.616616 1.889402 -16.209165 0
M  V30 21 C 10.634839 6.569297 -5.091693 0
M  V30 22 C 7.729727 2.912030 -15.104043 0
M  V30 23 C 8.326596 6.832492 -11.902553 0
M  V30 24 N 7.141548 3.301229 -12.710027 0
M  V30 25 O 12.637502 9.469852 -4.003870 0
M  V30 26 C 6.968362 4.745810 -12.588097 0 CFG=2
M  V30 27 C 9.693704 7.375971 -11.399109 0
M  V30 28 C 8.012654 5.334003 -11.586118 0 CFG=2
M  V30 29 H 6.069232 0.319817 -16.058820 0
M  V30 30 H 7.662741 -0.215910 -15.557590 0
M  V30 31 H 11.676785 9.285869 -8.096609 0
M  V30 32 H 7.241082 4.029463 -10.004861 0
M  V30 33 H 6.666705 5.643532 -9.907969 0
M  V30 34 H 10.234839 5.222250 -10.108252 0
M  V30 35 H 10.351486 9.768996 -5.737459 0
M  V30 36 H 11.964251 10.318222 -6.086655 0
M  V30 37 H 8.740214 4.462656 -8.359695 0
M  V30 38 H 8.068328 6.072585 -8.237817 0
M  V30 39 H 9.722825 5.763685 -6.752003 0
M  V30 40 H 9.034833 8.033481 -9.433168 0
M  V30 41 H 11.834124 6.969220 -9.322065 0
M  V30 42 H 5.327248 6.079424 -12.055635 0
M  V30 43 H 4.848110 4.667649 -12.995610 0
M  V30 44 H 5.208828 4.491214 -11.290676 0
M  V30 45 H 6.985885 2.273800 -17.011538 0
M  V30 46 H 8.600282 1.660579 -16.620489 0
M  V30 47 H 10.198139 5.769296 -4.518322 0
M  V30 48 H 8.311438 6.978112 -12.982213 0
M  V30 49 H 7.519398 7.457576 -11.521276 0
M  V30 50 H 12.873288 8.973360 -3.233539 0
M  V30 51 H 7.006077 5.244117 -13.545424 0
M  V30 52 H 10.516051 6.794558 -11.819064 0
M  V30 53 H 9.829945 8.402070 -11.739204 0
M  V30 54 H 8.931056 4.781381 -11.787544 0
M  V30 55 H 6.800680 2.789697 -11.911335 0
M  V30 END ATOM
M  V30 BEGIN BOND
M  V30 1 2 5 4
M  V30 2 2 6 3
M  V30 3 1 9 4
M  V30 4 1 10 7
M  V30 5 1 10 8
M  V30 6 1 11 1
M  V30 7 1 11 2
M  V30 8 1 13 5
M  V30 9 1 14 12
M  V30 10 1 15 8
M  V30 11 1 16 9
M  V30 12 2 16 12
M  V30 13 1 17 5
M  V30 14 1 17 8
M  V30 15 1 17 15
M  V30 16 1 19 6
M  V30 17 1 20 1
M  V30 18 1 21 12
M  V30 19 2 21 13
M  V30 20 2 22 2
M  V30 21 1 22 6
M  V30 22 1 22 20
M  V30 23 1 24 2
M  V30 24 1 25 16
M  V30 25 1 26 18
M  V30 26 1 26 24
M  V30 27 1 27 15
M  V30 28 1 27 23
M  V30 29 1 28 7
M  V30 30 1 28 23
M  V30 31 1 28 26
M  V30 32 1 29 1
M  V30 33 1 30 1
M  V30 34 1 31 4
M  V30 35 1 32 7
M  V30 36 1 33 7
M  V30 37 1 8 34 CFG=3
M  V30 38 1 35 9
M  V30 39 1 36 9
M  V30 40 1 37 10
M  V30 41 1 38 10
M  V30 42 1 39 13
M  V30 43 1 15 40 CFG=1
M  V30 44 1 17 41 CFG=3
M  V30 45 1 42 18
M  V30 46 1 43 18
M  V30 47 1 44 18
M  V30 48 1 45 20
M  V30 49 1 46 20
M  V30 50 1 47 21
M  V30 51 1 48 23
M  V30 52 1 49 23
M  V30 53 1 50 25
M  V30 54 1 26 51 CFG=3
M  V30 55 1 52 27
M  V30 56 1 53 27
M  V30 57 1 28 54 CFG=3
M  V30 58 1 55 24
M  V30 END BOND
M  V30 END CTAB
M  END
>  <i_epik_Tot_Q>  (1) 
-1

>  <i_epik_Tot_abs_Q>  (1) 
1

>  <i_i_glide_confnum>  (1) 
3

>  <i_i_glide_lignum>  (1) 
160

>  <i_i_glide_posenum>  (1) 
125

>  <i_i_glide_rotatable_bonds>  (1) 
6

>  <i_lp_mmshare_version>  (1) 
72125

>  <i_m_source_file_index>  (1) 
80

>  <i_f3d_flags>  (1) 
0

>  <num_sample>  (1) 
100

>  <b_lp_Chiralities_Consistent>  (1) 
1

>  <r_epik_Charging_Adjusted_Penalty>  (1) 
0.11080769427664984

>  <r_epik_Ionization_Penalty>  (1) 
0.11081096683628129

>  <r_epik_Ionization_Penalty_Charging>  (1) 
0.00049387447544676805

>  <r_epik_Ionization_Penalty_Neutral>  (1) 
0.11031709236083452

>  <r_epik_State_Penalty>  (1) 
0.11031381980120307

>  <r_glide_ring_energy>  (1) 
0.00060166262151322434

>  <r_i_docking_score>  (1) 
-5.3909077069547511

>  <r_i_glide_ecoul>  (1) 
1.0411429858997323

>  <r_i_glide_eff_state_penalty>  (1) 
0.11031381980120307

>  <r_i_glide_einternal>  (1) 
4.1087866776324535

>  <r_i_glide_emodel>  (1) 
-41.807272967269256

>  <r_i_glide_emodel_strain>  (1) 
1.5149419849507666

>  <r_i_glide_energy>  (1) 
-34.518149390217374

>  <r_i_glide_erotb>  (1) 
0.48016734467205424

>  <r_i_glide_esite>  (1) 
0

>  <r_i_glide_evdw>  (1) 
-35.559292376117106

>  <r_i_glide_gscore>  (1) 
-5.5012215267559545

>  <r_i_glide_gscore_strain>  (1) 
0

>  <r_i_glide_hbond>  (1) 
0

>  <r_i_glide_ligand_efficiency>  (1) 
-0.19253241810552682

>  <r_i_glide_ligand_efficiency_ln>  (1) 
-1.2443797826932992

>  <r_i_glide_ligand_efficiency_sa>  (1) 
-0.58464181754779698

>  <r_i_glide_lipo>  (1) 
-2.2314964944151154

>  <r_i_glide_metal>  (1) 
-0

>  <r_i_glide_rewards>  (1) 
-2.128099206091997

>  <r_lp_Energy>  (1) 
42.621707000000001

>  <s_epik_cmdline>  (1) 
J2VwaWtfcHl0aG9uJywgJy1waHQnLCAnMS4wJywgJy1waCcsICc3LjQnLCAnLXRuJywgJzgnLCAnLW1hJywgJzUwMCcsICctaW1hZScsICc8aW5maWxlLm1hZT4nLCAnLW9tYWUnLCAnPG91dGZpbGUubWFlPic=

>  <s_epik_input>  (1) 
Tz1DKFtPSF0pW0NASF0xW0NIMl1bQ0gyXVMvQzE9Ti9bQ0BASF0oW0NIM10pW0NASF0oW0NIMl1bQ0gyXTIpW0NIMl1bQ0gyXVtDQEBIXShbQ0BIXTIzKVtDQEhdM0M0PVtDSF1bQ0gyXUMoW09IXSk9QyhGKVtDSF09W0NIXTQ=

>  <s_glide_docking_method>  (1) 
confgen

>  <s_i_glide_gridfile>  (1) 
gpcr_drd2_6luq_protein_autoprepared_prepared

>  <s_lp_Force_Field>  (1) 
S-OPLS

>  <s_lp_Variant>  (1) 
DiffSBDD_79_num_sample_100-1

>  <s_m_source_file>  (1) 
generated__ligand_DiffSBDD_2026-05-06_prepared.sdf

>  <GenAI_Model>  (1) 
DiffSBDD

>  <Protein>  (1) 
generic_title2

$$$$
DiffSBDD_93_num_sample_100
     RDKit          3D

  0  0  0  0  0  0  0  0  0  0999 V3000
M  V30 BEGIN CTAB
M  V30 COUNTS 36 36 0 0 1
M  V30 BEGIN ATOM
M  V30 1 C 10.091199 6.625533 -7.615096 0
M  V30 2 C 11.251881 10.409501 -5.279826 0
M  V30 3 C 8.739466 6.485265 -6.914297 0
M  V30 4 C 11.972017 8.750111 -2.611994 0
M  V30 5 C 11.834046 7.245955 -2.342676 0
M  V30 6 C 10.926995 7.823397 -7.112702 0 CFG=2
M  V30 7 C 12.054362 9.107911 -5.166315 0 CFG=2
M  V30 8 C 12.218024 7.931729 -7.947903 0
M  V30 9 C 11.527229 6.531021 -4.914739 0
M  V30 10 C 11.151152 7.893033 -5.557999 0 CFG=2
M  V30 11 C 12.822780 8.993738 -3.840210 0
M  V30 12 C 11.233282 6.328258 -3.418433 0
M  V30 13 H 10.658070 5.696587 -7.543474 0
M  V30 14 H 9.892436 6.762298 -8.679183 0
M  V30 15 H 10.367771 10.435185 -4.645466 0
M  V30 16 H 11.834564 11.294498 -5.089928 0
M  V30 17 H 10.935655 10.540095 -6.298148 0
M  V30 18 H 8.100183 5.769026 -7.432475 0
M  V30 19 H 8.235890 7.449408 -6.879045 0
M  V30 20 H 8.842025 6.148248 -5.889074 0
M  V30 21 H 11.035288 9.289084 -2.686221 0
M  V30 22 H 12.477684 9.190849 -1.751252 0
M  V30 23 H 11.189947 7.121681 -1.480992 0
M  V30 24 H 12.811119 6.849723 -2.059099 0
M  V30 25 H 10.331421 8.697090 -7.380397 0
M  V30 26 H 12.862523 9.219788 -5.884893 0
M  V30 27 H 13.030723 7.369224 -7.496551 0
M  V30 28 H 12.081748 7.563238 -8.964667 0
M  V30 29 H 12.539230 8.969187 -8.040617 0
M  V30 30 H 10.910659 5.769086 -5.365919 0
M  V30 31 H 12.506145 6.169348 -5.179720 0
M  V30 32 H 10.169456 8.098663 -5.138613 0
M  V30 33 H 13.433039 9.883379 -3.694879 0
M  V30 34 H 13.519511 8.164952 -3.892264 0
M  V30 35 H 10.164628 6.170162 -3.268186 0
M  V30 36 H 11.663946 5.369178 -3.169117 0
M  V30 END ATOM
M  V30 BEGIN BOND
M  V30 1 1 3 1
M  V30 2 1 5 4
M  V30 3 1 6 1
M  V30 4 1 7 2
M  V30 5 1 8 6
M  V30 6 1 10 6
M  V30 7 1 10 7
M  V30 8 1 10 9
M  V30 9 1 11 4
M  V30 10 1 11 7
M  V30 11 1 12 5
M  V30 12 1 12 9
M  V30 13 1 13 1
M  V30 14 1 14 1
M  V30 15 1 15 2
M  V30 16 1 16 2
M  V30 17 1 17 2
M  V30 18 1 18 3
M  V30 19 1 19 3
M  V30 20 1 20 3
M  V30 21 1 21 4
M  V30 22 1 22 4
M  V30 23 1 23 5
M  V30 24 1 24 5
M  V30 25 1 6 25 CFG=3
M  V30 26 1 7 26 CFG=3
M  V30 27 1 27 8
M  V30 28 1 28 8
M  V30 29 1 29 8
M  V30 30 1 30 9
M  V30 31 1 31 9
M  V30 32 1 10 32 CFG=1
M  V30 33 1 33 11
M  V30 34 1 34 11
M  V30 35 1 35 12
M  V30 36 1 36 12
M  V30 END BOND
M  V30 END CTAB
M  END
>  <i_epik_Tot_Q>  (1) 
0

>  <i_epik_Tot_abs_Q>  (1) 
0

>  <i_i_glide_confnum>  (1) 
5

>  <i_i_glide_lignum>  (1) 
188

>  <i_i_glide_posenum>  (1) 
246

>  <i_i_glide_rotatable_bonds>  (1) 
2

>  <i_lp_mmshare_version>  (1) 
72125

>  <i_m_source_file_index>  (1) 
94

>  <i_f3d_flags>  (1) 
0

>  <num_sample>  (1) 
100

>  <b_lp_Chiralities_Consistent>  (1) 
1

>  <r_epik_Charging_Adjusted_Penalty>  (1) 
0

>  <r_epik_Ionization_Penalty>  (1) 
0

>  <r_epik_Ionization_Penalty_Charging>  (1) 
0

>  <r_epik_Ionization_Penalty_Neutral>  (1) 
0

>  <r_epik_State_Penalty>  (1) 
-0

>  <r_glide_ring_energy>  (1) 
0.71858809347972064

>  <r_i_docking_score>  (1) 
-5.3883403629115678

>  <r_i_glide_ecoul>  (1) 
-0.14959354957966084

>  <r_i_glide_eff_state_penalty>  (1) 
-0

>  <r_i_glide_einternal>  (1) 
7.7037551837694718

>  <r_i_glide_emodel>  (1) 
-11.247853609953349

>  <r_i_glide_emodel_strain>  (1) 
3.1448996958572657

>  <r_i_glide_energy>  (1) 
-14.213568997646741

>  <r_i_glide_erotb>  (1) 
0.54244534581565329

>  <r_i_glide_esite>  (1) 
0

>  <r_i_glide_evdw>  (1) 
-14.06397544806708

>  <r_i_glide_gscore>  (1) 
-5.3883403629115678

>  <r_i_glide_gscore_strain>  (1) 
0

>  <r_i_glide_hbond>  (1) 
0

>  <r_i_glide_ligand_efficiency>  (1) 
-0.44902836357596398

>  <r_i_glide_ligand_efficiency_ln>  (1) 
-1.5461936012660082

>  <r_i_glide_ligand_efficiency_sa>  (1) 
-1.0280183261916436

>  <r_i_glide_lipo>  (1) 
-2.2823639073089748

>  <r_i_glide_metal>  (1) 
-0

>  <r_i_glide_rewards>  (1) 
-2.9227839965779427

>  <r_lp_Energy>  (1) 
24.382804

>  <r_lp_tautomer_probability>  (1) 
1

>  <s_epik_cmdline>  (1) 
J2VwaWtfcHl0aG9uJywgJy1waHQnLCAnMS4wJywgJy1waCcsICc3LjQnLCAnLXRuJywgJzgnLCAnLW1hJywgJzUwMCcsICctaW1hZScsICc8aW5maWxlLm1hZT4nLCAnLW9tYWUnLCAnPG91dGZpbGUubWFlPic=

>  <s_epik_input>  (1) 
W0NIM11bQ0gyXVtDQEhdKFtDSDNdKVtDQEhdKFtDQEhdMVtDSDNdKVtDSDJdW0NIMl1bQ0gyXVtDSDJdW0NIMl0x

>  <s_glide_docking_method>  (1) 
confgen

>  <s_i_glide_gridfile>  (1) 
gpcr_drd2_6luq_protein_autoprepared_prepared

>  <s_lp_Force_Field>  (1) 
S-OPLS

>  <s_lp_Variant>  (1) 
DiffSBDD_93_num_sample_100-1

>  <s_m_source_file>  (1) 
generated__ligand_DiffSBDD_2026-05-06_prepared.sdf

>  <GenAI_Model>  (1) 
DiffSBDD

>  <Protein>  (1) 
generic_title2

$$$$
DiffSBDD_57_num_sample_100
     RDKit          3D

  0  0  0  0  0  0  0  0  0  0999 V3000
M  V30 BEGIN CTAB
M  V30 COUNTS 57 57 0 0 1
M  V30 BEGIN ATOM
M  V30 1 O 7.643097 4.001125 -15.491208 0 CHG=-1
M  V30 2 C 12.393700 8.078161 -3.891541 0 CFG=2
M  V30 3 O 10.919217 6.569308 -12.691797 0
M  V30 4 C 9.658186 8.239983 -10.244787 0
M  V30 5 C 11.233036 6.755197 -1.945244 0
M  V30 6 O 6.722423 5.901634 -14.069933 0
M  V30 7 C 9.054808 5.948510 -11.265383 0 CFG=2
M  V30 8 C 11.333880 7.550643 -4.860112 0
M  V30 9 C 9.793581 6.709302 -10.146872 0 CFG=2
M  V30 10 C 9.486865 6.043620 -8.792302 0
M  V30 11 C 10.940244 8.177043 -5.979743 0
M  V30 12 C 11.834868 8.106893 -2.438721 0 CFG=1
M  V30 13 C 9.526839 6.277546 -12.697040 0 CFG=2
M  V30 14 C 11.551426 9.481921 -6.446426 0
M  V30 15 P 7.577283 4.699897 -14.189282 0
M  V30 16 O 7.665304 6.169193 -11.129314 0
M  V30 17 C 12.945778 9.665917 -5.870890 0
M  V30 18 C 9.351888 5.124478 -13.714033 0
M  V30 19 C 7.068274 3.425636 -12.912707 0
M  V30 20 C 10.444169 6.477238 -7.692730 0
M  V30 21 C 9.864871 7.607336 -6.856416 0
M  V30 22 N 12.858873 8.569484 -1.491536 0 CHG=1
M  V30 23 C 12.887441 9.477347 -4.343969 0
M  V30 24 F 10.234738 6.967736 -1.091525 0
M  V30 25 H 13.224855 7.379773 -3.891421 0
M  V30 26 H 11.295058 6.190864 -13.474863 0
M  V30 27 H 8.635282 8.598434 -10.268034 0
M  V30 28 H 10.198791 8.752263 -9.451797 0
M  V30 29 H 10.101748 8.569300 -11.180197 0
M  V30 30 H 10.742124 6.158580 -2.703328 0
M  V30 31 H 11.976001 6.099346 -1.491596 0
M  V30 32 H 9.226990 4.882825 -11.106660 0
M  V30 33 H 10.868677 6.613642 -4.610477 0
M  V30 34 H 10.859587 6.569316 -10.283809 0
M  V30 35 H 8.444615 6.169088 -8.494127 0
M  V30 36 H 9.618309 4.965978 -8.905426 0
M  V30 37 H 11.073823 8.888695 -2.382588 0
M  V30 38 H 8.993543 7.158175 -13.053185 0
M  V30 39 H 11.623093 9.472204 -7.535889 0
M  V30 40 H 10.895125 10.305557 -6.167123 0
M  V30 41 H 7.478349 6.859254 -10.480257 0
M  V30 42 H 13.330300 10.628617 -6.171917 0
M  V30 43 H 13.620098 8.969302 -6.361473 0
M  V30 44 H 9.886196 5.361593 -14.633087 0
M  V30 45 H 9.832046 4.225910 -13.327138 0
M  V30 46 H 7.717231 2.550852 -12.955700 0
M  V30 47 H 7.107114 3.809429 -11.896023 0
M  V30 48 H 6.048046 3.090303 -13.093394 0
M  V30 49 H 10.659436 5.631545 -7.040315 0
M  V30 50 H 11.408501 6.765388 -8.114446 0
M  V30 51 H 9.411771 8.399079 -7.451882 0
M  V30 52 H 9.057628 7.215045 -6.234999 0
M  V30 53 H 13.633064 7.925817 -1.481114 0
M  V30 54 H 13.198176 9.487465 -1.756380 0
M  V30 55 H 12.142045 10.169248 -3.973034 0
M  V30 56 H 13.833952 9.766636 -3.886941 0
M  V30 57 H 12.449148 8.635301 -0.570666 0
M  V30 END ATOM
M  V30 BEGIN BOND
M  V30 1 1 8 2
M  V30 2 1 9 4
M  V30 3 1 9 7
M  V30 4 1 10 9
M  V30 5 2 11 8
M  V30 6 1 12 2
M  V30 7 1 12 5
M  V30 8 1 13 3
M  V30 9 1 13 7
M  V30 10 1 14 11
M  V30 11 1 15 1
M  V30 12 2 15 6
M  V30 13 1 16 7
M  V30 14 1 17 14
M  V30 15 1 18 13
M  V30 16 1 18 15
M  V30 17 1 19 15
M  V30 18 1 20 10
M  V30 19 1 21 11
M  V30 20 1 21 20
M  V30 21 1 22 12
M  V30 22 1 23 2
M  V30 23 1 23 17
M  V30 24 1 24 5
M  V30 25 1 2 25 CFG=1
M  V30 26 1 26 3
M  V30 27 1 27 4
M  V30 28 1 28 4
M  V30 29 1 29 4
M  V30 30 1 30 5
M  V30 31 1 31 5
M  V30 32 1 7 32 CFG=1
M  V30 33 1 33 8
M  V30 34 1 9 34 CFG=3
M  V30 35 1 35 10
M  V30 36 1 36 10
M  V30 37 1 12 37 CFG=3
M  V30 38 1 13 38 CFG=3
M  V30 39 1 39 14
M  V30 40 1 40 14
M  V30 41 1 41 16
M  V30 42 1 42 17
M  V30 43 1 43 17
M  V30 44 1 44 18
M  V30 45 1 45 18
M  V30 46 1 46 19
M  V30 47 1 47 19
M  V30 48 1 48 19
M  V30 49 1 49 20
M  V30 50 1 50 20
M  V30 51 1 51 21
M  V30 52 1 52 21
M  V30 53 1 53 22
M  V30 54 1 54 22
M  V30 55 1 55 23
M  V30 56 1 56 23
M  V30 57 1 57 22
M  V30 END BOND
M  V30 END CTAB
M  END
>  <i_epik_Tot_Q>  (1) 
0

>  <i_epik_Tot_abs_Q>  (1) 
2

>  <i_i_glide_confnum>  (1) 
773

>  <i_i_glide_lignum>  (1) 
115

>  <i_i_glide_posenum>  (1) 
3

>  <i_i_glide_rotatable_bonds>  (1) 
12

>  <i_lp_mmshare_version>  (1) 
72125

>  <i_m_source_file_index>  (1) 
58

>  <i_f3d_flags>  (1) 
0

>  <num_sample>  (1) 
100

>  <b_lp_Chiralities_Consistent>  (1) 
1

>  <r_epik_Charging_Adjusted_Penalty>  (1) 
0.062298349578367884

>  <r_epik_Ionization_Penalty>  (1) 
0.031162850121694747

>  <r_epik_Ionization_Penalty_Charging>  (1) 
0.031162474360832908

>  <r_epik_Ionization_Penalty_Neutral>  (1) 
3.7576086184060383e-07

>  <r_epik_State_Penalty>  (1) 
0.031135875217534977

>  <r_glide_ring_energy>  (1) 
0

>  <r_i_docking_score>  (1) 
-5.3833423993435634

>  <r_i_glide_ecoul>  (1) 
-7.0251176169464253

>  <r_i_glide_eff_state_penalty>  (1) 
0.031135875217534977

>  <r_i_glide_einternal>  (1) 
14.314327270636795

>  <r_i_glide_emodel>  (1) 
-29.254004784191547

>  <r_i_glide_emodel_strain>  (1) 
3.5118103441084294

>  <r_i_glide_energy>  (1) 
-28.13378667943849

>  <r_i_glide_erotb>  (1) 
1.1523900364963153

>  <r_i_glide_esite>  (1) 
0

>  <r_i_glide_evdw>  (1) 
-21.108669062492066

>  <r_i_glide_gscore>  (1) 
-5.4144782745610982

>  <r_i_glide_gscore_strain>  (1) 
0

>  <r_i_glide_hbond>  (1) 
-0.22770433849788027

>  <r_i_glide_ligand_efficiency>  (1) 
-0.22430593330598181

>  <r_i_glide_ligand_efficiency_ln>  (1) 
-1.2884808616492245

>  <r_i_glide_ligand_efficiency_sa>  (1) 
-0.64701027185590898

>  <r_i_glide_lipo>  (1) 
-2.5184213807171725

>  <r_i_glide_metal>  (1) 
-0

>  <r_i_glide_rewards>  (1) 
-1.7115414961757935

>  <r_lp_Energy>  (1) 
9.4265720000000002

>  <s_epik_cmdline>  (1) 
J2VwaWtfcHl0aG9uJywgJy1waHQnLCAnMS4wJywgJy1waCcsICc3LjQnLCAnLXRuJywgJzgnLCAnLW1hJywgJzUwMCcsICctaW1hZScsICc8aW5maWxlLm1hZT4nLCAnLW9tYWUnLCAnPG91dGZpbGUubWFlPic=

>  <s_epik_input>  (1) 
W09IXVtQQF0oPU8pKFtDSDNdKVtDSDJdW0NASF0oW09IXSlbQ0BIXShbT0hdKVtDQEBIXShbQ0gzXSlbQ0gyXVtDSDJdW0NIMl1DKFtDSDJdW0NIMl1bQ0gyXTEpPVtDSF1bQ0BASF0xW0NAQEhdKFtDSDJdRilbTkgyXQ==

>  <s_glide_docking_method>  (1) 
confgen

>  <s_i_glide_gridfile>  (1) 
gpcr_drd2_6luq_protein_autoprepared_prepared

>  <s_lp_Force_Field>  (1) 
S-OPLS

>  <s_lp_Variant>  (1) 
DiffSBDD_57_num_sample_100-1

>  <s_m_source_file>  (1) 
generated__ligand_DiffSBDD_2026-05-06_prepared.sdf

>  <GenAI_Model>  (1) 
DiffSBDD

>  <Protein>  (1) 
generic_title2

$$$$
DiffSBDD_9_num_sample_100
     RDKit          3D

  0  0  0  0  0  0  0  0  0  0999 V3000
M  V30 BEGIN CTAB
M  V30 COUNTS 39 39 0 0 1
M  V30 BEGIN ATOM
M  V30 1 C 8.927023 5.769347 -9.868768 0
M  V30 2 O 10.374222 6.272761 -12.379491 0
M  V30 3 O 8.062731 7.209180 -12.858780 0
M  V30 4 C 11.834851 7.705885 -3.933928 0
M  V30 5 C 6.067794 4.459712 -12.252876 0
M  V30 6 C 7.920113 2.848011 -16.775738 0
M  V30 7 C 8.540252 4.282220 -14.898942 0
M  V30 8 S 8.932148 6.055545 -12.579989 0
M  V30 9 C 12.072198 9.048057 -4.291781 0
M  V30 10 C 6.706701 5.213499 -11.083908 0
M  V30 11 C 8.782282 4.996977 -13.938887 0
M  V30 12 C 9.089269 6.136452 -7.334106 0
M  V30 13 C 11.352936 6.795083 -4.896800 0
M  V30 14 C 10.623998 6.245280 -7.268190 0
M  V30 15 C 11.119279 7.224933 -6.221417 0
M  V30 16 C 8.568082 5.229451 -8.469319 0
M  V30 17 F 12.067063 7.291847 -2.665347 0
M  V30 18 C 8.235059 3.568818 -15.841805 0
M  V30 19 C 11.834854 9.477412 -5.613824 0
M  V30 20 F 11.153599 8.969300 -7.849518 0
M  V30 21 C 11.363758 8.563790 -6.577825 0
M  V30 22 O 6.234874 3.222385 -12.291664 0
M  V30 23 O 5.434839 5.137323 -13.089125 0 CHG=-1
M  V30 24 C 8.257991 5.133162 -11.110234 0 CFG=2
M  V30 25 H 10.002461 5.676121 -9.985135 0
M  V30 26 H 8.734108 6.839514 -9.899376 0
M  V30 27 H 7.634868 2.215173 -17.585722 0
M  V30 28 H 12.438633 9.746616 -3.553768 0
M  V30 29 H 6.310377 4.764448 -10.176255 0
M  V30 30 H 6.369848 6.250034 -11.091673 0
M  V30 31 H 8.658366 7.131143 -7.457868 0
M  V30 32 H 8.710584 5.770744 -6.380375 0
M  V30 33 H 11.169086 5.769291 -4.621876 0
M  V30 34 H 11.087169 5.281241 -7.091629 0
M  V30 35 H 11.016975 6.569458 -8.230549 0
M  V30 36 H 7.486775 5.165887 -8.363871 0
M  V30 37 H 8.953334 4.218792 -8.339966 0
M  V30 38 H 12.020349 10.504963 -5.890274 0
M  V30 39 H 8.579711 4.094438 -11.196521 0
M  V30 END ATOM
M  V30 BEGIN BOND
M  V30 1 2 8 2
M  V30 2 2 8 3
M  V30 3 1 9 4
M  V30 4 1 10 5
M  V30 5 3 11 7
M  V30 6 1 11 8
M  V30 7 2 13 4
M  V30 8 1 14 12
M  V30 9 1 15 13
M  V30 10 1 15 14
M  V30 11 1 16 1
M  V30 12 1 16 12
M  V30 13 1 17 4
M  V30 14 3 18 6
M  V30 15 1 18 7
M  V30 16 2 19 9
M  V30 17 2 21 15
M  V30 18 1 21 19
M  V30 19 1 21 20
M  V30 20 2 22 5
M  V30 21 1 23 5
M  V30 22 1 24 1
M  V30 23 1 24 8
M  V30 24 1 24 10
M  V30 25 1 25 1
M  V30 26 1 26 1
M  V30 27 1 27 6
M  V30 28 1 28 9
M  V30 29 1 29 10
M  V30 30 1 30 10
M  V30 31 1 31 12
M  V30 32 1 32 12
M  V30 33 1 33 13
M  V30 34 1 34 14
M  V30 35 1 35 14
M  V30 36 1 36 16
M  V30 37 1 37 16
M  V30 38 1 38 19
M  V30 39 1 24 39 CFG=3
M  V30 END BOND
M  V30 END CTAB
M  END
>  <i_epik_Tot_Q>  (1) 
-1

>  <i_epik_Tot_abs_Q>  (1) 
1

>  <i_i_glide_confnum>  (1) 
53

>  <i_i_glide_lignum>  (1) 
15

>  <i_i_glide_posenum>  (1) 
68

>  <i_i_glide_rotatable_bonds>  (1) 
10

>  <i_lp_mmshare_version>  (1) 
72125

>  <i_m_source_file_index>  (1) 
10

>  <i_f3d_flags>  (1) 
0

>  <num_sample>  (1) 
100

>  <b_lp_Chiralities_Consistent>  (1) 
1

>  <r_epik_Charging_Adjusted_Penalty>  (1) 
0.0001073779662715613

>  <r_epik_Ionization_Penalty>  (1) 
0.0001073779662715613

>  <r_epik_Ionization_Penalty_Charging>  (1) 
0.0001073779662715613

>  <r_epik_Ionization_Penalty_Neutral>  (1) 
0

>  <r_epik_State_Penalty>  (1) 
-0

>  <r_glide_ring_energy>  (1) 
0

>  <r_i_docking_score>  (1) 
-5.377612848664362

>  <r_i_glide_ecoul>  (1) 
-1.1243817347853993

>  <r_i_glide_eff_state_penalty>  (1) 
-0

>  <r_i_glide_einternal>  (1) 
8.5643793954718053

>  <r_i_glide_emodel>  (1) 
-38.406853318575898

>  <r_i_glide_emodel_strain>  (1) 
0.31317211210308571

>  <r_i_glide_energy>  (1) 
-33.555225027902573

>  <r_i_glide_erotb>  (1) 
1.2234298802473262

>  <r_i_glide_esite>  (1) 
-0.029037821559343133

>  <r_i_glide_evdw>  (1) 
-32.430843293117171

>  <r_i_glide_gscore>  (1) 
-5.377612848664362

>  <r_i_glide_gscore_strain>  (1) 
0

>  <r_i_glide_hbond>  (1) 
0

>  <r_i_glide_ligand_efficiency>  (1) 
-0.22406720202768174

>  <r_i_glide_ligand_efficiency_ln>  (1) 
-1.2871095172597424

>  <r_i_glide_ligand_efficiency_sa>  (1) 
-0.6463216516888145

>  <r_i_glide_lipo>  (1) 
-2.1409458006123665

>  <r_i_glide_metal>  (1) 
-0

>  <r_i_glide_rewards>  (1) 
-2.6408596818663108

>  <r_lp_Energy>  (1) 
9.3765809999999998

>  <r_lp_tautomer_probability>  (1) 
1

>  <s_epik_cmdline>  (1) 
J2VwaWtfcHl0aG9uJywgJy1waHQnLCAnMS4wJywgJy1waCcsICc3LjQnLCAnLXRuJywgJzgnLCAnLW1hJywgJzUwMCcsICctaW1hZScsICc8aW5maWxlLm1hZT4nLCAnLW9tYWUnLCAnPG91dGZpbGUubWFlPic=

>  <s_epik_input>  (1) 
W0NIXSNDQyNDUyg9TykoPU8pW0NASF0oW0NIMl1DKD1PKVtPSF0pW0NIMl1bQ0gyXVtDSDJdW0NIMl1jKFtjSF0xKWMoRilbY0hdW2NIXWMxRg==

>  <s_glide_docking_method>  (1) 
confgen

>  <s_i_glide_gridfile>  (1) 
gpcr_drd2_6luq_protein_autoprepared_prepared

>  <s_lp_Force_Field>  (1) 
S-OPLS

>  <s_lp_Variant>  (1) 
DiffSBDD_9_num_sample_100-1

>  <s_m_source_file>  (1) 
generated__ligand_DiffSBDD_2026-05-06_prepared.sdf

>  <GenAI_Model>  (1) 
DiffSBDD

>  <Protein>  (1) 
generic_title2

$$$$
DiffSBDD_44_num_sample_100
     RDKit          3D

  0  0  0  0  0  0  0  0  0  0999 V3000
M  V30 BEGIN CTAB
M  V30 COUNTS 56 58 0 0 1
M  V30 BEGIN ATOM
M  V30 1 C 4.992839 4.187392 -13.080580 0
M  V30 2 C 6.497112 3.997197 -13.387968 0 CFG=1
M  V30 3 C 11.862422 8.978859 -5.341744 0
M  V30 4 C 11.834839 7.086057 -3.254687 0
M  V30 5 C 11.177238 6.793935 -4.469308 0
M  V30 6 C 9.604325 6.870982 -11.544932 0
M  V30 7 C 6.834688 2.519761 -13.539683 0
M  V30 8 N 6.802246 4.458985 -14.780220 0 CFG=2 CHG=1
M  V30 9 C 10.519346 7.464379 -10.451815 0
M  V30 10 C 10.715271 8.058090 -7.944918 0
M  V30 11 O 11.515570 8.969290 -8.132099 0
M  V30 12 C 12.504906 8.306550 -3.091364 0
M  V30 13 N 11.822735 6.169331 -2.214841 0
M  V30 14 C 7.633945 2.158633 -14.766917 0
M  V30 15 N 10.519987 7.418503 -6.784268 0
M  V30 16 C 9.666315 5.334667 -11.664683 0
M  V30 17 O 6.956918 4.865168 -11.179008 0
M  V30 18 C 9.378592 6.208643 -8.405841 0
M  V30 19 C 7.764339 3.531818 -15.442679 0
M  V30 20 N 8.704765 4.797521 -12.609371 0
M  V30 21 C 7.069887 5.904647 -15.006547 0
M  V30 22 C 9.850807 7.538703 -9.064171 0 CFG=2
M  V30 23 C 9.617078 6.296222 -6.875248 0
M  V30 24 C 11.192666 7.737686 -5.529937 0
M  V30 25 C 7.413951 4.596531 -12.288513 0
M  V30 26 C 12.518966 9.245378 -4.127936 0
M  V30 27 O 6.472928 1.674981 -12.724403 0
M  V30 28 H 4.770573 4.198519 -12.014193 0
M  V30 29 H 4.635099 5.130726 -13.491642 0
M  V30 30 H 4.372000 3.391694 -13.491390 0
M  V30 31 H 11.881745 9.724837 -6.112115 0
M  V30 32 H 10.667783 5.850188 -4.583009 0
M  V30 33 H 8.578991 7.199594 -11.368038 0
M  V30 34 H 9.890526 7.295337 -12.506842 0
M  V30 35 H 10.745333 8.492497 -10.731689 0
M  V30 36 H 11.488925 6.969327 -10.413464 0
M  V30 37 H 13.011009 8.526382 -2.162569 0
M  V30 38 H 12.334634 6.335675 -1.362476 0
M  V30 39 H 11.383430 5.260401 -2.311984 0
M  V30 40 H 8.593958 1.711186 -14.507348 0
M  V30 41 H 7.065941 1.457073 -15.379805 0
M  V30 42 H 10.644364 5.035869 -12.022805 0
M  V30 43 H 9.521257 4.830297 -10.714465 0
M  V30 44 H 8.338273 5.977692 -8.643364 0
M  V30 45 H 9.992133 5.382624 -8.759719 0
M  V30 46 H 8.783484 3.903246 -15.328162 0
M  V30 47 H 7.562281 3.470641 -16.512716 0
M  V30 48 H 9.034465 4.557385 -13.530115 0
M  V30 49 H 8.075422 6.199448 -14.707312 0
M  V30 50 H 6.973463 6.132442 -16.069690 0
M  V30 51 H 6.357480 6.529894 -14.468016 0
M  V30 52 H 9.034830 8.249637 -9.118288 0
M  V30 53 H 10.074830 5.370283 -6.554612 0
M  V30 54 H 8.696223 6.483971 -6.321284 0
M  V30 55 H 13.038698 10.169175 -3.993882 0
M  V30 56 H 5.932968 4.283638 -15.263110 0
M  V30 END ATOM
M  V30 BEGIN BOND
M  V30 1 1 2 1 CFG=1
M  V30 2 2 5 4
M  V30 3 1 7 2
M  V30 4 1 8 2
M  V30 5 1 9 6
M  V30 6 2 11 10
M  V30 7 1 12 4
M  V30 8 1 13 4
M  V30 9 1 14 7
M  V30 10 1 15 10
M  V30 11 1 16 6
M  V30 12 1 19 8
M  V30 13 1 19 14
M  V30 14 1 20 16
M  V30 15 1 21 8
M  V30 16 1 22 9
M  V30 17 1 22 10
M  V30 18 1 22 18
M  V30 19 1 23 15
M  V30 20 1 23 18
M  V30 21 2 24 3
M  V30 22 1 24 5
M  V30 23 1 24 15
M  V30 24 1 25 2
M  V30 25 2 25 17
M  V30 26 1 25 20
M  V30 27 1 26 3
M  V30 28 2 26 12
M  V30 29 2 27 7
M  V30 30 1 28 1
M  V30 31 1 29 1
M  V30 32 1 30 1
M  V30 33 1 31 3
M  V30 34 1 32 5
M  V30 35 1 33 6
M  V30 36 1 34 6
M  V30 37 1 35 9
M  V30 38 1 36 9
M  V30 39 1 37 12
M  V30 40 1 38 13
M  V30 41 1 39 13
M  V30 42 1 40 14
M  V30 43 1 41 14
M  V30 44 1 42 16
M  V30 45 1 43 16
M  V30 46 1 44 18
M  V30 47 1 45 18
M  V30 48 1 46 19
M  V30 49 1 47 19
M  V30 50 1 48 20
M  V30 51 1 49 21
M  V30 52 1 50 21
M  V30 53 1 51 21
M  V30 54 1 22 52 CFG=3
M  V30 55 1 53 23
M  V30 56 1 54 23
M  V30 57 1 55 26
M  V30 58 1 8 56 CFG=3
M  V30 END BOND
M  V30 END CTAB
M  END
>  <i_epik_Tot_Q>  (1) 
1

>  <i_epik_Tot_abs_Q>  (1) 
1

>  <i_i_glide_confnum>  (1) 
56

>  <i_i_glide_lignum>  (1) 
80

>  <i_i_glide_posenum>  (1) 
324

>  <i_i_glide_rotatable_bonds>  (1) 
7

>  <i_lp_mmshare_version>  (1) 
72125

>  <i_m_source_file_index>  (1) 
45

>  <i_f3d_flags>  (1) 
0

>  <num_sample>  (1) 
100

>  <b_lp_Chiralities_Consistent>  (1) 
1

>  <r_epik_Charging_Adjusted_Penalty>  (1) 
0.87787264938008924

>  <r_epik_Ionization_Penalty>  (1) 
0.44040452980928141

>  <r_epik_Ionization_Penalty_Charging>  (1) 
0.43893632469004462

>  <r_epik_Ionization_Penalty_Neutral>  (1) 
0.0014682051192367804

>  <r_epik_State_Penalty>  (1) 
0.43893632469004457

>  <r_glide_ring_energy>  (1) 
0

>  <r_i_docking_score>  (1) 
-5.3735449568518092

>  <r_i_glide_ecoul>  (1) 
-3.6926177657952501

>  <r_i_glide_eff_state_penalty>  (1) 
0.43893632469004457

>  <r_i_glide_einternal>  (1) 
4.1615525900450621

>  <r_i_glide_emodel>  (1) 
-55.678210309758924

>  <r_i_glide_emodel_strain>  (1) 
0.77027998610054738

>  <r_i_glide_energy>  (1) 
-42.225967814273517

>  <r_i_glide_erotb>  (1) 
0.96983297192060391

>  <r_i_glide_esite>  (1) 
0

>  <r_i_glide_evdw>  (1) 
-38.533350048478269

>  <r_i_glide_gscore>  (1) 
-5.8124812815418538

>  <r_i_glide_gscore_strain>  (1) 
0

>  <r_i_glide_hbond>  (1) 
0

>  <r_i_glide_ligand_efficiency>  (1) 
-0.19902018358710405

>  <r_i_glide_ligand_efficiency_ln>  (1) 
-1.2508726761428175

>  <r_i_glide_ligand_efficiency_sa>  (1) 
-0.59706055076131226

>  <r_i_glide_lipo>  (1) 
-2.4691142571021563

>  <r_i_glide_metal>  (1) 
-0

>  <r_i_glide_rewards>  (1) 
-1.8326398290671011

>  <r_lp_Energy>  (1) 
34.499494999999996

>  <r_lp_tautomer_probability>  (1) 
0.99995000000000001

>  <s_epik_cmdline>  (1) 
J2VwaWtfcHl0aG9uJywgJy1waHQnLCAnMS4wJywgJy1waCcsICc3LjQnLCAnLXRuJywgJzgnLCAnLW1hJywgJzUwMCcsICctaW1hZScsICc8aW5maWxlLm1hZT4nLCAnLW9tYWUnLCAnPG91dGZpbGUubWFlPic=

>  <s_epik_input>  (1) 
W0NIM11OMVtDSDJdW0NIMl1DKD1PKVtDQEBdMShbQ0gzXSlDKD1PKVtOSF1bQ0gyXVtDSDJdW0NIMl1bQ0BASF0yW0NIMl1bQ0gyXU4oQzI9TyljKFtjSF1bY0hdW2NIXTMpW2NIXWMzW05IMl0=

>  <s_glide_docking_method>  (1) 
confgen

>  <s_i_glide_gridfile>  (1) 
gpcr_drd2_6luq_protein_autoprepared_prepared

>  <s_lp_Force_Field>  (1) 
S-OPLS

>  <s_lp_Variant>  (1) 
DiffSBDD_44_num_sample_100-5

>  <s_m_source_file>  (1) 
generated__ligand_DiffSBDD_2026-05-06_prepared.sdf

>  <GenAI_Model>  (1) 
DiffSBDD

>  <Protein>  (1) 
generic_title2

$$$$
DiffSBDD_90_num_sample_100
     RDKit          3D

  0  0  0  0  0  0  0  0  0  0999 V3000
M  V30 BEGIN CTAB
M  V30 COUNTS 61 65 0 0 1
M  V30 BEGIN ATOM
M  V30 1 C 11.477349 9.718288 -6.346635 0
M  V30 2 C 10.269159 8.269963 -9.023257 0
M  V30 3 C 6.293890 -1.009604 -16.390170 0
M  V30 4 S 11.984687 9.769300 -4.691650 0
M  V30 5 C 9.478996 6.003104 -9.592510 0
M  V30 6 C 10.288789 6.500129 -7.364267 0
M  V30 7 C 9.760417 5.576167 -8.271506 0
M  V30 8 C 6.519602 0.052995 -15.291544 0
M  V30 9 C 6.488393 0.107815 -18.681474 0
M  V30 10 C 4.828571 -1.735625 -18.306313 0
M  V30 11 N 6.959588 1.385557 -15.783744 0 CFG=2 CHG=1
M  V30 12 C 7.921539 1.331081 -16.914146 0
M  V30 13 C 7.814420 4.804661 -14.091727 0
M  V30 14 C 8.894278 6.858280 -12.213377 0
M  V30 15 C 10.527428 7.791286 -7.731546 0
M  V30 16 C 7.368890 2.298917 -14.682907 0
M  V30 17 C 11.626839 8.081078 -4.481595 0
M  V30 18 C 10.661412 6.169303 -5.864443 0
M  V30 19 C 8.954583 5.094142 -10.528914 0
M  V30 20 C 7.156956 1.420571 -18.244215 0
M  V30 21 N 11.118772 7.593953 -5.627041 0 CHG=1
M  V30 22 C 11.834847 7.261500 -3.244871 0
M  V30 23 C 5.538343 -0.541242 -17.650217 0 CFG=1
M  V30 24 C 9.434830 7.772510 -11.284855 0
M  V30 25 C 9.732828 7.355730 -9.974727 0
M  V30 26 C 8.123479 4.523533 -12.809371 0
M  V30 27 C 7.270471 3.791680 -15.086342 0
M  V30 28 C 8.662417 5.508531 -11.842336 0
M  V30 29 C 11.035520 8.468516 -6.659293 0
M  V30 30 H 11.536769 10.594278 -6.966699 0
M  V30 31 H 10.466654 9.297857 -9.287443 0
M  V30 32 H 5.742407 -1.825716 -15.921727 0
M  V30 33 H 7.245430 -1.449671 -16.691623 0
M  V30 34 H 9.570827 4.560524 -7.971530 0
M  V30 35 H 7.252399 -0.332740 -14.580411 0
M  V30 36 H 5.592534 0.188840 -14.732184 0
M  V30 37 H 5.934159 0.303361 -19.601061 0
M  V30 38 H 7.263512 -0.608822 -18.957271 0
M  V30 39 H 5.545531 -2.437423 -18.733807 0
M  V30 40 H 4.234841 -2.290694 -17.582005 0
M  V30 41 H 4.160814 -1.409808 -19.104527 0
M  V30 42 H 8.616887 2.168161 -16.869438 0
M  V30 43 H 8.556989 0.445794 -16.865276 0
M  V30 44 H 7.950479 5.803326 -14.470049 0
M  V30 45 H 8.658839 7.195345 -13.205736 0
M  V30 46 H 8.375011 2.036122 -14.358341 0
M  V30 47 H 6.715380 2.132361 -13.824965 0
M  V30 48 H 9.809211 5.943624 -5.226939 0
M  V30 49 H 11.507853 5.491648 -5.758773 0
M  V30 50 H 8.775921 4.073787 -10.242335 0
M  V30 51 H 6.414153 2.218618 -18.197707 0
M  V30 52 H 7.854663 1.717451 -19.028182 0
M  V30 53 H 12.883499 6.969297 -3.200863 0
M  V30 54 H 11.597639 7.877324 -2.376782 0
M  V30 55 H 4.766847 0.169293 -17.355675 0
M  V30 56 H 9.607266 8.792087 -11.580609 0
M  V30 57 H 7.980557 3.519799 -12.438816 0
M  V30 58 H 6.234842 4.063327 -15.273155 0
M  V30 59 H 7.802750 3.979029 -16.017325 0
M  V30 60 H 11.194586 6.378982 -3.254346 0
M  V30 61 H 6.126563 1.800997 -16.174756 0
M  V30 END ATOM
M  V30 BEGIN BOND
M  V30 1 1 4 1
M  V30 2 2 7 5
M  V30 3 1 7 6
M  V30 4 1 8 3
M  V30 5 1 11 8
M  V30 6 1 12 11
M  V30 7 1 15 2
M  V30 8 2 15 6
M  V30 9 1 16 11
M  V30 10 1 17 4
M  V30 11 1 18 6
M  V30 12 1 19 5
M  V30 13 1 20 9
M  V30 14 1 20 12
M  V30 15 2 21 17
M  V30 16 1 21 18
M  V30 17 1 22 17
M  V30 18 1 23 3
M  V30 19 1 23 9
M  V30 20 1 23 10
M  V30 21 2 24 14
M  V30 22 2 25 2
M  V30 23 1 25 5
M  V30 24 1 25 24
M  V30 25 2 26 13
M  V30 26 1 27 13
M  V30 27 1 27 16
M  V30 28 1 28 14
M  V30 29 2 28 19
M  V30 30 1 28 26
M  V30 31 2 29 1
M  V30 32 1 29 15
M  V30 33 1 29 21
M  V30 34 1 30 1
M  V30 35 1 31 2
M  V30 36 1 32 3
M  V30 37 1 33 3
M  V30 38 1 34 7
M  V30 39 1 35 8
M  V30 40 1 36 8
M  V30 41 1 37 9
M  V30 42 1 38 9
M  V30 43 1 39 10
M  V30 44 1 40 10
M  V30 45 1 41 10
M  V30 46 1 42 12
M  V30 47 1 43 12
M  V30 48 1 44 13
M  V30 49 1 45 14
M  V30 50 1 46 16
M  V30 51 1 47 16
M  V30 52 1 48 18
M  V30 53 1 49 18
M  V30 54 1 50 19
M  V30 55 1 51 20
M  V30 56 1 52 20
M  V30 57 1 53 22
M  V30 58 1 54 22
M  V30 59 1 23 55 CFG=1
M  V30 60 1 56 24
M  V30 61 1 57 26
M  V30 62 1 58 27
M  V30 63 1 59 27
M  V30 64 1 60 22
M  V30 65 1 11 61 CFG=3
M  V30 END BOND
M  V30 END CTAB
M  END
>  <i_epik_Tot_Q>  (1) 
2

>  <i_epik_Tot_abs_Q>  (1) 
2

>  <i_i_glide_confnum>  (1) 
78

>  <i_i_glide_lignum>  (1) 
181

>  <i_i_glide_posenum>  (1) 
140

>  <i_i_glide_rotatable_bonds>  (1) 
4

>  <i_lp_mmshare_version>  (1) 
72125

>  <i_m_source_file_index>  (1) 
91

>  <i_f3d_flags>  (1) 
0

>  <num_sample>  (1) 
100

>  <b_lp_Chiralities_Consistent>  (1) 
1

>  <r_epik_Charging_Adjusted_Penalty>  (1) 
0.0021252633397680827

>  <r_epik_Ionization_Penalty>  (1) 
0.002125263340211697

>  <r_epik_Ionization_Penalty_Charging>  (1) 
0.0021252633397680827

>  <r_epik_Ionization_Penalty_Neutral>  (1) 
4.4361447992621368e-13

>  <r_epik_State_Penalty>  (1) 
-0

>  <r_glide_ring_energy>  (1) 
0.74439644786372106

>  <r_i_docking_score>  (1) 
-5.3686484936079513

>  <r_i_glide_ecoul>  (1) 
0.43172492314998956

>  <r_i_glide_eff_state_penalty>  (1) 
-0

>  <r_i_glide_einternal>  (1) 
1.3670043554752702

>  <r_i_glide_emodel>  (1) 
-42.38419570873031

>  <r_i_glide_emodel_strain>  (1) 
0.24898296116971608

>  <r_i_glide_energy>  (1) 
-31.996795500104437

>  <r_i_glide_erotb>  (1) 
0.47996519481946287

>  <r_i_glide_esite>  (1) 
0

>  <r_i_glide_evdw>  (1) 
-32.428520423254426

>  <r_i_glide_gscore>  (1) 
-5.3686484936079513

>  <r_i_glide_gscore_strain>  (1) 
0

>  <r_i_glide_hbond>  (1) 
0

>  <r_i_glide_ligand_efficiency>  (1) 
-0.18512581012441212

>  <r_i_glide_ligand_efficiency_ln>  (1) 
-1.2292843678566601

>  <r_i_glide_ligand_efficiency_sa>  (1) 
-0.56876514131395484

>  <r_i_glide_lipo>  (1) 
-2.6625215185547648

>  <r_i_glide_metal>  (1) 
-0

>  <r_i_glide_rewards>  (1) 
-1.6294248871824266

>  <r_lp_Energy>  (1) 
49.609797999999998

>  <r_lp_tautomer_probability>  (1) 
1

>  <s_epik_cmdline>  (1) 
J2VwaWtfcHl0aG9uJywgJy1waHQnLCAnMS4wJywgJy1waCcsICc3LjQnLCAnLXRuJywgJzgnLCAnLW1hJywgJzUwMCcsICctaW1hZScsICc8aW5maWxlLm1hZT4nLCAnLW9tYWUnLCAnPG91dGZpbGUubWFlPic=

>  <s_epik_input>  (1) 
W0NIMl09QzFTW0NIXT1DMk4xW0NIMl1jKFtjSF0zKWMyW2NIXWMoYzM0KVtjSF1bY0hdYyhbY0hdNClcW0NIXT1bQ0hdXFtDSDJdW0NIMl1ONVtDSDJdW0NIMl1bQ0BIXShbQ0gzXSlbQ0gyXVtDSDJdW0NIMl01

>  <s_glide_docking_method>  (1) 
confgen

>  <s_i_glide_gridfile>  (1) 
gpcr_drd2_6luq_protein_autoprepared_prepared

>  <s_lp_Force_Field>  (1) 
S-OPLS

>  <s_lp_Variant>  (1) 
DiffSBDD_90_num_sample_100-1

>  <s_m_source_file>  (1) 
generated__ligand_DiffSBDD_2026-05-06_prepared.sdf

>  <GenAI_Model>  (1) 
DiffSBDD

>  <Protein>  (1) 
generic_title2

$$$$
DiffSBDD_86_num_sample_100
     RDKit          3D

  0  0  0  0  0  0  0  0  0  0999 V3000
M  V30 BEGIN CTAB
M  V30 COUNTS 53 55 0 0 1
M  V30 BEGIN ATOM
M  V30 1 C 11.354062 8.522403 -7.088411 0
M  V30 2 O 7.885684 5.713796 -11.165744 0
M  V30 3 O 8.136389 5.183475 -15.466002 0
M  V30 4 C 7.289650 2.257381 -15.607327 0
M  V30 5 C 6.253213 4.149326 -14.227859 0 CFG=2
M  V30 6 C 9.387293 6.266489 -9.308966 0 CFG=2
M  V30 7 C 8.269893 4.473146 -11.750448 0
M  V30 8 C 7.476767 -0.008471 -14.749264 0
M  V30 9 F 6.636571 -0.522273 -12.571269 0
M  V30 10 C 6.847782 0.384174 -13.554879 0
M  V30 11 C 11.400221 7.820231 -10.066037 0
M  V30 12 O 10.835501 7.767885 -11.302596 0
M  V30 13 C 10.650597 7.061758 -8.954178 0 CFG=1
M  V30 14 F 9.624909 4.969542 -9.120768 0
M  V30 15 O 5.392739 4.410512 -13.128842 0
M  V30 16 C 7.034656 6.570779 -13.846858 0
M  V30 17 C 7.695671 0.924400 -15.772869 0
M  V30 18 C 13.179280 8.568956 -8.597695 0
M  V30 19 C 12.530834 8.491458 -9.889607 0
M  V30 20 C 6.665217 2.669447 -14.406159 0
M  V30 21 F 5.847550 2.080932 -12.220194 0
M  V30 22 C 7.465024 5.118815 -14.194723 0 CFG=2
M  V30 23 S 11.077294 9.466979 -5.759381 0
M  V30 24 C 8.932978 6.568231 -10.722034 0 CFG=1
M  V30 25 C 10.076259 6.669660 -11.676158 0
M  V30 26 C 6.442190 1.716672 -13.376614 0
M  V30 27 N 10.367472 7.957946 -7.839828 0
M  V30 28 C 7.429055 5.629353 -16.626554 0
M  V30 29 N 12.634149 8.241979 -7.492219 0
M  V30 30 C 8.576431 4.548899 -13.270842 0
M  V30 31 H 7.463596 2.965713 -16.397532 0
M  V30 32 H 5.665009 4.465128 -15.078501 0
M  V30 33 H 8.582242 6.491442 -8.611626 0
M  V30 34 H 9.107095 4.021256 -11.222103 0
M  V30 35 H 7.443218 3.795488 -11.574462 0
M  V30 36 H 7.793343 -1.030149 -14.880194 0
M  V30 37 H 11.350881 6.321875 -8.565836 0
M  V30 38 H 5.876831 4.250627 -12.330803 0
M  V30 39 H 6.614088 6.669357 -12.849865 0
M  V30 40 H 6.246732 6.934400 -14.503615 0
M  V30 41 H 7.866644 7.267068 -13.918659 0
M  V30 42 H 8.180917 0.616840 -16.688760 0
M  V30 43 H 14.204733 8.947973 -8.631680 0
M  V30 44 H 13.034317 8.986222 -10.707304 0
M  V30 45 H 8.630683 7.606916 -10.696966 0
M  V30 46 H 10.631893 5.746916 -11.747256 0
M  V30 47 H 9.722103 6.945983 -12.665100 0
M  V30 48 H 9.402559 8.131466 -7.588765 0
M  V30 49 H 8.136198 5.716573 -17.451858 0
M  V30 50 H 6.956062 6.605130 -16.513899 0
M  V30 51 H 6.671869 4.918590 -16.949308 0
M  V30 52 H 9.507946 5.054796 -13.497543 0
M  V30 53 H 8.835684 3.536995 -13.570896 0
M  V30 END ATOM
M  V30 BEGIN BOND
M  V30 1 1 7 2
M  V30 2 1 10 8
M  V30 3 1 10 9
M  V30 4 1 12 11
M  V30 5 1 13 6
M  V30 6 1 13 11
M  V30 7 1 14 6
M  V30 8 1 15 5
M  V30 9 1 17 4
M  V30 10 2 17 8
M  V30 11 2 19 11
M  V30 12 1 19 18
M  V30 13 2 20 4
M  V30 14 1 20 5
M  V30 15 1 22 3 CFG=3
M  V30 16 1 22 5
M  V30 17 1 22 16
M  V30 18 2 23 1
M  V30 19 1 24 2
M  V30 20 1 24 6
M  V30 21 1 25 12
M  V30 22 1 25 24
M  V30 23 2 26 10
M  V30 24 1 26 20
M  V30 25 1 26 21
M  V30 26 1 27 1
M  V30 27 1 27 13
M  V30 28 1 28 3
M  V30 29 1 29 1
M  V30 30 2 29 18
M  V30 31 1 30 7
M  V30 32 1 30 22
M  V30 33 1 31 4
M  V30 34 1 5 32 CFG=3
M  V30 35 1 6 33 CFG=1
M  V30 36 1 34 7
M  V30 37 1 35 7
M  V30 38 1 36 8
M  V30 39 1 13 37 CFG=1
M  V30 40 1 38 15
M  V30 41 1 39 16
M  V30 42 1 40 16
M  V30 43 1 41 16
M  V30 44 1 42 17
M  V30 45 1 43 18
M  V30 46 1 44 19
M  V30 47 1 24 45 CFG=1
M  V30 48 1 46 25
M  V30 49 1 47 25
M  V30 50 1 48 27
M  V30 51 1 49 28
M  V30 52 1 50 28
M  V30 53 1 51 28
M  V30 54 1 52 30
M  V30 55 1 53 30
M  V30 END BOND
M  V30 END CTAB
M  END
>  <i_epik_Tot_Q>  (1) 
0

>  <i_epik_Tot_abs_Q>  (1) 
0

>  <i_i_glide_confnum>  (1) 
12

>  <i_i_glide_lignum>  (1) 
176

>  <i_i_glide_posenum>  (1) 
96

>  <i_i_glide_rotatable_bonds>  (1) 
8

>  <i_lp_mmshare_version>  (1) 
72125

>  <i_m_source_file_index>  (1) 
87

>  <i_f3d_flags>  (1) 
0

>  <num_sample>  (1) 
100

>  <b_lp_Chiralities_Consistent>  (1) 
1

>  <r_epik_Charging_Adjusted_Penalty>  (1) 
0

>  <r_epik_Ionization_Penalty>  (1) 
0.00043041881029206555

>  <r_epik_Ionization_Penalty_Charging>  (1) 
0

>  <r_epik_Ionization_Penalty_Neutral>  (1) 
0.00043041881029206555

>  <r_epik_State_Penalty>  (1) 
-0

>  <r_glide_ring_energy>  (1) 
0

>  <r_i_docking_score>  (1) 
-5.3671901000021851

>  <r_i_glide_ecoul>  (1) 
-5.3449197046213577

>  <r_i_glide_eff_state_penalty>  (1) 
-0

>  <r_i_glide_einternal>  (1) 
9.9446308917387682

>  <r_i_glide_emodel>  (1) 
-34.52095851308605

>  <r_i_glide_emodel_strain>  (1) 
0.92745211866532884

>  <r_i_glide_energy>  (1) 
-28.672302820757796

>  <r_i_glide_erotb>  (1) 
0.40494693264899051

>  <r_i_glide_esite>  (1) 
-0.027603197822472267

>  <r_i_glide_evdw>  (1) 
-23.327383116136438

>  <r_i_glide_gscore>  (1) 
-5.3671901000021851

>  <r_i_glide_gscore_strain>  (1) 
0

>  <r_i_glide_hbond>  (1) 
0

>  <r_i_glide_ligand_efficiency>  (1) 
-0.1789063366667395

>  <r_i_glide_ligand_efficiency_ln>  (1) 
-1.2194840709405341

>  <r_i_glide_ligand_efficiency_sa>  (1) 
-0.55590358481201785

>  <r_i_glide_lipo>  (1) 
-1.7626143831747181

>  <r_i_glide_metal>  (1) 
-0

>  <r_i_glide_rewards>  (1) 
-2.0138123401539594

>  <r_lp_Energy>  (1) 
48.950238999999996

>  <r_lp_tautomer_probability>  (1) 
1

>  <s_epik_Chemistry_Notes>  (1) 
This compound has an imine and may undergo hydrolysis.

>  <s_epik_cmdline>  (1) 
J2VwaWtfcHl0aG9uJywgJy1waHQnLCAnMS4wJywgJy1waCcsICc3LjQnLCAnLXRuJywgJzgnLCAnLW1hJywgJzUwMCcsICctaW1hZScsICc8aW5maWxlLm1hZT4nLCAnLW9tYWUnLCAnPG91dGZpbGUubWFlPic=

>  <s_epik_input>  (1) 
W0NIXTFbQ0hdPU5DKD1TKVtOSF1bQ0BIXShDPTEyKVtDQEhdKEYpW0NAQEhdKFtDSDJdTzIpT1tDSDJdW0NIMl1bQ0BAXShbQ0gzXSkoT1tDSDNdKVtDQEhdKFtPSF0pYyhjM0YpW2NIXVtjSF1bY0hdYzNG

>  <s_glide_docking_method>  (1) 
confgen

>  <s_i_glide_gridfile>  (1) 
gpcr_drd2_6luq_protein_autoprepared_prepared

>  <s_lp_Force_Field>  (1) 
S-OPLS

>  <s_lp_Variant>  (1) 
DiffSBDD_86_num_sample_100-1

>  <s_m_source_file>  (1) 
generated__ligand_DiffSBDD_2026-05-06_prepared.sdf

>  <GenAI_Model>  (1) 
DiffSBDD

>  <Protein>  (1) 
generic_title2

$$$$
DiffSBDD_75_num_sample_100
     RDKit          3D

  0  0  0  0  0  0  0  0  0  0999 V3000
M  V30 BEGIN CTAB
M  V30 COUNTS 76 81 0 0 1
M  V30 BEGIN ATOM
M  V30 1 C 7.434852 2.672578 -14.063050 0
M  V30 2 C 7.747282 3.150297 -15.487046 0
M  V30 3 C 11.967426 4.902895 -17.154284 0
M  V30 4 C 16.572078 5.851125 -18.845028 0 CFG=2
M  V30 5 F 5.658807 6.840353 -18.909599 0
M  V30 6 C 6.411240 3.481673 -13.258887 0
M  V30 7 C 6.688782 5.392637 -14.922659 0 CFG=1
M  V30 8 N 8.173904 5.082189 -17.001219 0
M  V30 9 O 13.514846 1.179326 -18.200500 0 CHG=-1
M  V30 10 C 6.591159 5.011026 -13.403647 0 CFG=2
M  V30 11 C 9.434833 6.446160 -10.221169 0 CFG=1
M  V30 12 N 14.241747 2.140004 -18.436652 0 CHG=1
M  V30 13 C 14.599468 7.251736 -18.188460 0
M  V30 14 O 15.361164 2.055526 -18.933108 0
M  V30 15 C 6.487596 6.883098 -15.275113 0
M  V30 16 C 13.716212 3.497960 -18.085151 0
M  V30 17 C 9.067423 7.182760 -11.495855 0 CFG=1
M  V30 18 C 15.755332 7.105594 -19.170956 0
M  V30 19 C 9.815941 5.882278 -11.568508 0 CFG=2
M  V30 20 C 9.443600 5.268141 -17.474312 0
M  V30 21 N 15.749818 4.647979 -18.924704 0
M  V30 22 C 5.745485 7.111349 -16.608172 0
M  V30 23 N 7.627382 5.534308 -12.445292 0 CFG=2 CHG=1
M  V30 24 C 7.786764 6.999509 -12.276965 0
M  V30 25 C 10.433039 6.989615 -9.223575 0
M  V30 26 O 7.980873 1.681821 -13.586813 0
M  V30 27 C 7.017436 5.249480 -17.886615 0
M  V30 28 O 8.350047 5.769301 -9.622766 0
M  V30 29 C 6.499979 6.694118 -17.886397 0 CFG=1
M  V30 30 O 9.673068 5.591090 -18.640493 0
M  V30 31 O 18.234831 6.996641 -17.491584 0
M  V30 32 C 8.954238 4.869054 -12.282078 0
M  V30 33 C 13.877378 5.937561 -17.948593 0
M  V30 34 C 12.444724 3.622779 -17.491665 0
M  V30 35 N 12.661277 6.040920 -17.369485 0
M  V30 36 C 10.613901 5.063412 -16.487185 0
M  V30 37 C 17.322989 5.920255 -17.497854 0
M  V30 38 C 14.467168 4.694130 -18.325322 0
M  V30 39 C 7.892207 4.690094 -15.598368 0 CFG=2
M  V30 40 H 6.937883 2.806975 -16.131094 0
M  V30 41 H 8.644468 2.649128 -15.844844 0
M  V30 42 H 17.322502 5.744471 -19.629444 0
M  V30 43 H 5.422654 3.196619 -13.612937 0
M  V30 44 H 6.453439 3.184743 -12.210518 0
M  V30 45 H 5.804704 4.925116 -15.345785 0
M  V30 46 H 5.658583 5.449279 -13.044198 0
M  V30 47 H 13.892790 7.997266 -18.555834 0
M  V30 48 H 14.963651 7.619130 -17.229345 0
M  V30 49 H 7.434837 7.409568 -15.278763 0
M  V30 50 H 5.885112 7.352656 -14.496667 0
M  V30 51 H 9.609803 8.105695 -11.693678 0
M  V30 52 H 16.374573 8.002956 -19.170261 0
M  V30 53 H 15.355399 7.010652 -20.181425 0
M  V30 54 H 10.852641 5.940458 -11.891670 0
M  V30 55 H 16.195540 3.752429 -19.091682 0
M  V30 56 H 5.497994 8.170609 -16.691151 0
M  V30 57 H 4.785483 6.594029 -16.574717 0
M  V30 58 H 7.923744 7.512247 -13.221098 0
M  V30 59 H 6.936438 7.444063 -11.760170 0
M  V30 60 H 11.265507 7.471534 -9.736619 0
M  V30 61 H 9.952567 7.723268 -8.575419 0
M  V30 62 H 10.824253 6.182021 -8.604486 0
M  V30 63 H 7.277340 4.958637 -18.906197 0
M  V30 64 H 6.234838 4.560486 -17.603501 0
M  V30 65 H 7.720624 6.447718 -9.355851 0
M  V30 66 H 7.326286 7.369298 -18.095654 0
M  V30 67 H 18.841887 6.885741 -18.207798 0
M  V30 68 H 8.864346 3.966339 -11.675789 0
M  V30 69 H 9.461585 4.589886 -13.197414 0
M  V30 70 H 11.845892 2.747043 -17.289329 0
M  V30 71 H 10.464111 4.169296 -15.891634 0
M  V30 72 H 10.660426 5.908097 -15.801176 0
M  V30 73 H 17.883911 5.000538 -17.331141 0
M  V30 74 H 16.637201 6.025207 -16.656805 0
M  V30 75 H 8.714543 5.038008 -14.998346 0
M  V30 76 H 7.223411 5.305560 -11.544684 0
M  V30 END ATOM
M  V30 BEGIN BOND
M  V30 1 1 2 1
M  V30 2 1 6 1
M  V30 3 1 10 6
M  V30 4 1 10 7
M  V30 5 1 12 9
M  V30 6 2 14 12
M  V30 7 1 15 7
M  V30 8 1 16 12
M  V30 9 1 17 11
M  V30 10 1 18 4
M  V30 11 1 18 13
M  V30 12 1 19 11
M  V30 13 1 19 17
M  V30 14 1 20 8
M  V30 15 1 21 4
M  V30 16 1 22 15
M  V30 17 1 23 10
M  V30 18 1 24 17
M  V30 19 1 24 23
M  V30 20 1 25 11
M  V30 21 2 26 1
M  V30 22 1 27 8
M  V30 23 1 11 28 CFG=1
M  V30 24 1 29 5
M  V30 25 1 29 22
M  V30 26 1 29 27
M  V30 27 2 30 20
M  V30 28 1 32 19
M  V30 29 1 32 23
M  V30 30 1 33 13
M  V30 31 2 34 3
M  V30 32 1 34 16
M  V30 33 1 35 3
M  V30 34 2 35 33
M  V30 35 1 36 3
M  V30 36 1 36 20
M  V30 37 1 37 4
M  V30 38 1 37 31
M  V30 39 2 38 16
M  V30 40 1 38 21
M  V30 41 1 38 33
M  V30 42 1 39 2
M  V30 43 1 39 7
M  V30 44 1 39 8
M  V30 45 1 40 2
M  V30 46 1 41 2
M  V30 47 1 4 42 CFG=3
M  V30 48 1 43 6
M  V30 49 1 44 6
M  V30 50 1 7 45 CFG=3
M  V30 51 1 10 46 CFG=1
M  V30 52 1 47 13
M  V30 53 1 48 13
M  V30 54 1 49 15
M  V30 55 1 50 15
M  V30 56 1 17 51 CFG=1
M  V30 57 1 52 18
M  V30 58 1 53 18
M  V30 59 1 19 54 CFG=1
M  V30 60 1 55 21
M  V30 61 1 56 22
M  V30 62 1 57 22
M  V30 63 1 58 24
M  V30 64 1 59 24
M  V30 65 1 60 25
M  V30 66 1 61 25
M  V30 67 1 62 25
M  V30 68 1 63 27
M  V30 69 1 64 27
M  V30 70 1 65 28
M  V30 71 1 29 66 CFG=3
M  V30 72 1 67 31
M  V30 73 1 68 32
M  V30 74 1 69 32
M  V30 75 1 70 34
M  V30 76 1 71 36
M  V30 77 1 72 36
M  V30 78 1 73 37
M  V30 79 1 74 37
M  V30 80 1 39 75 CFG=1
M  V30 81 1 23 76 CFG=1
M  V30 END BOND
M  V30 END CTAB
M  END
>  <i_epik_Tot_Q>  (1) 
1

>  <i_epik_Tot_abs_Q>  (1) 
3

>  <i_i_glide_confnum>  (1) 
92

>  <i_i_glide_lignum>  (1) 
150

>  <i_i_glide_posenum>  (1) 
386

>  <i_i_glide_rotatable_bonds>  (1) 
8

>  <i_lp_mmshare_version>  (1) 
72125

>  <i_m_source_file_index>  (1) 
76

>  <i_f3d_flags>  (1) 
0

>  <num_sample>  (1) 
100

>  <b_lp_Chiralities_Consistent>  (1) 
1

>  <r_epik_Charging_Adjusted_Penalty>  (1) 
0.015891369841317948

>  <r_epik_Ionization_Penalty>  (1) 
0.0079711574059170582

>  <r_epik_Ionization_Penalty_Charging>  (1) 
0.0079456849206589655

>  <r_epik_Ionization_Penalty_Neutral>  (1) 
2.5472485258093083e-05

>  <r_epik_State_Penalty>  (1) 
0.0079456849206589828

>  <r_glide_ring_energy>  (1) 
1.6152992618079427

>  <r_i_docking_score>  (1) 
-5.3669813568020883

>  <r_i_glide_ecoul>  (1) 
-6.2783101001613728

>  <r_i_glide_eff_state_penalty>  (1) 
0.0079456849206589828

>  <r_i_glide_einternal>  (1) 
13.245045157528764

>  <r_i_glide_emodel>  (1) 
-47.63570191859646

>  <r_i_glide_emodel_strain>  (1) 
0.092530731680625422

>  <r_i_glide_energy>  (1) 
-40.416016953111324

>  <r_i_glide_erotb>  (1) 
0.34657339541443727

>  <r_i_glide_esite>  (1) 
-0.019872304641389782

>  <r_i_glide_evdw>  (1) 
-34.137706852949954

>  <r_i_glide_gscore>  (1) 
-5.3749270417227475

>  <r_i_glide_gscore_strain>  (1) 
0

>  <r_i_glide_hbond>  (1) 
-0.16

>  <r_i_glide_ligand_efficiency>  (1) 
-0.13761490658466893

>  <r_i_glide_ligand_efficiency_ln>  (1) 
-1.1508331537240897

>  <r_i_glide_ligand_efficiency_sa>  (1) 
-0.46668124593925492

>  <r_i_glide_lipo>  (1) 
-1.8908746880019343

>  <r_i_glide_metal>  (1) 
-0

>  <r_i_glide_rewards>  (1) 
-1.0021215868221574

>  <r_lp_Energy>  (1) 
47.04589

>  <r_lp_tautomer_probability>  (1) 
0.99999997999999912

>  <s_epik_cmdline>  (1) 
J2VwaWtfcHl0aG9uJywgJy1waHQnLCAnMS4wJywgJy1waCcsICc3LjQnLCAnLXRuJywgJzgnLCAnLW1hJywgJzUwMCcsICctaW1hZScsICc8aW5maWxlLm1hZT4nLCAnLW9tYWUnLCAnPG91dGZpbGUubWFlPic=

>  <s_epik_input>  (1) 
W0NIM11bQ0BdMShbT0hdKVtDQEhdKFtDQEhdMTIpW0NIMl1OKFtDSDJdMilbQ0BASF0zW0NIMl1DKD1PKVtDSDJdW0NASF0oW0NAQEhdMzQpTihbQ0gyXVtDQEBIXShGKVtDSDJdW0NIMl00KUMoPU8pW0NIMl1jKG41KVtjSF1jKFtOK10oW08tXSk9TyljKGM1NilbTkhdW0NAQEhdKFtDSDJdW0NIMl02KVtDSDJdW09IXQ==

>  <s_glide_docking_method>  (1) 
confgen

>  <s_i_glide_gridfile>  (1) 
gpcr_drd2_6luq_protein_autoprepared_prepared

>  <s_lp_Force_Field>  (1) 
S-OPLS

>  <s_lp_Variant>  (1) 
DiffSBDD_75_num_sample_100-1

>  <s_m_source_file>  (1) 
generated__ligand_DiffSBDD_2026-05-06_prepared.sdf

>  <GenAI_Model>  (1) 
DiffSBDD

>  <Protein>  (1) 
generic_title2

$$$$
DiffSBDD_44_num_sample_100
     RDKit          3D

  0  0  0  0  0  0  0  0  0  0999 V3000
M  V30 BEGIN CTAB
M  V30 COUNTS 56 58 0 0 1
M  V30 BEGIN ATOM
M  V30 1 C 9.036100 3.411328 -12.430227 0
M  V30 2 C 8.018613 4.549697 -12.651041 0 CFG=1
M  V30 3 C 12.024009 8.975247 -4.974325 0
M  V30 4 C 12.167199 7.090831 -2.901163 0
M  V30 5 C 11.435051 6.791881 -4.052530 0
M  V30 6 C 10.390619 7.967470 -10.874664 0
M  V30 7 C 7.349739 4.461909 -14.008339 0
M  V30 8 N 6.811435 4.327023 -11.805377 0 CFG=2 CHG=1
M  V30 9 C 10.587262 6.969288 -9.745193 0
M  V30 10 C 10.685174 7.997962 -7.459221 0
M  V30 11 O 11.389959 8.969302 -7.711436 0
M  V30 12 C 12.822720 8.316224 -2.777647 0
M  V30 13 N 12.249420 6.169303 -1.891667 0
M  V30 14 C 5.851116 4.605885 -13.996502 0
M  V30 15 N 10.617295 7.371140 -6.291316 0
M  V30 16 C 10.614966 7.369300 -12.266068 0
M  V30 17 O 7.846788 6.955680 -12.472167 0
M  V30 18 C 9.230124 6.158338 -7.733657 0
M  V30 19 C 5.595960 4.814688 -12.505426 0
M  V30 20 N 9.936205 6.090455 -12.456562 0
M  V30 21 C 6.883684 4.697055 -10.379493 0
M  V30 22 C 9.807903 7.380894 -8.505829 0 CFG=2
M  V30 23 C 9.811739 6.184740 -6.309667 0
M  V30 24 C 11.361951 7.725142 -5.106176 0
M  V30 25 C 8.598771 5.981189 -12.520052 0
M  V30 26 C 12.755272 9.250985 -3.811642 0
M  V30 27 O 7.983551 4.278497 -15.046311 0
M  V30 28 H 9.885352 3.530006 -13.091667 0
M  V30 29 H 9.417101 3.391857 -11.408556 0
M  V30 30 H 8.605988 2.429874 -12.638711 0
M  V30 31 H 11.984213 9.716276 -5.747330 0
M  V30 32 H 10.939209 5.836520 -4.131795 0
M  V30 33 H 9.375496 8.367760 -10.850941 0
M  V30 34 H 11.049744 8.814975 -10.691665 0
M  V30 35 H 11.652502 6.874045 -9.529096 0
M  V30 36 H 10.234838 5.984369 -10.036106 0
M  V30 37 H 13.391958 8.540058 -1.886934 0
M  V30 38 H 12.793805 6.343521 -1.060503 0
M  V30 39 H 11.790349 5.267163 -1.958180 0
M  V30 40 H 5.482933 5.412408 -14.630131 0
M  V30 41 H 5.434840 3.653789 -14.291668 0
M  V30 42 H 10.234838 8.107792 -12.961261 0
M  V30 43 H 11.678338 7.233091 -12.463508 0
M  V30 44 H 8.144728 6.169408 -7.710953 0
M  V30 45 H 9.493076 5.206654 -8.195431 0
M  V30 46 H 5.434022 5.872723 -12.293838 0
M  V30 47 H 4.716574 4.263961 -12.170781 0
M  V30 48 H 10.505535 5.256650 -12.517548 0
M  V30 49 H 6.797320 5.769287 -10.226353 0
M  V30 50 H 6.044756 4.209679 -9.891665 0
M  V30 51 H 7.803137 4.347432 -9.911767 0
M  V30 52 H 9.034839 8.107404 -8.725285 0
M  V30 53 H 10.513874 5.369301 -6.219717 0
M  V30 54 H 9.053450 6.169306 -5.528499 0
M  V30 55 H 13.275139 10.169302 -3.715905 0
M  V30 56 H 6.710395 3.322139 -11.807264 0
M  V30 END ATOM
M  V30 BEGIN BOND
M  V30 1 1 2 1 CFG=3
M  V30 2 2 5 4
M  V30 3 1 7 2
M  V30 4 1 8 2
M  V30 5 1 9 6
M  V30 6 2 11 10
M  V30 7 1 12 4
M  V30 8 1 13 4
M  V30 9 1 14 7
M  V30 10 1 15 10
M  V30 11 1 16 6
M  V30 12 1 19 8
M  V30 13 1 19 14
M  V30 14 1 20 16
M  V30 15 1 21 8
M  V30 16 1 22 9
M  V30 17 1 22 10
M  V30 18 1 22 18
M  V30 19 1 23 15
M  V30 20 1 23 18
M  V30 21 2 24 3
M  V30 22 1 24 5
M  V30 23 1 24 15
M  V30 24 1 25 2
M  V30 25 2 25 17
M  V30 26 1 25 20
M  V30 27 1 26 3
M  V30 28 2 26 12
M  V30 29 2 27 7
M  V30 30 1 28 1
M  V30 31 1 29 1
M  V30 32 1 30 1
M  V30 33 1 31 3
M  V30 34 1 32 5
M  V30 35 1 33 6
M  V30 36 1 34 6
M  V30 37 1 35 9
M  V30 38 1 36 9
M  V30 39 1 37 12
M  V30 40 1 38 13
M  V30 41 1 39 13
M  V30 42 1 40 14
M  V30 43 1 41 14
M  V30 44 1 42 16
M  V30 45 1 43 16
M  V30 46 1 44 18
M  V30 47 1 45 18
M  V30 48 1 46 19
M  V30 49 1 47 19
M  V30 50 1 48 20
M  V30 51 1 49 21
M  V30 52 1 50 21
M  V30 53 1 51 21
M  V30 54 1 22 52 CFG=3
M  V30 55 1 53 23
M  V30 56 1 54 23
M  V30 57 1 55 26
M  V30 58 1 8 56 CFG=1
M  V30 END BOND
M  V30 END CTAB
M  END
>  <i_epik_Tot_Q>  (1) 
1

>  <i_epik_Tot_abs_Q>  (1) 
1

>  <i_i_glide_confnum>  (1) 
141

>  <i_i_glide_lignum>  (1) 
80

>  <i_i_glide_posenum>  (1) 
88

>  <i_i_glide_rotatable_bonds>  (1) 
7

>  <i_lp_mmshare_version>  (1) 
72125

>  <i_m_source_file_index>  (1) 
45

>  <i_f3d_flags>  (1) 
0

>  <num_sample>  (1) 
100

>  <b_lp_Chiralities_Consistent>  (1) 
1

>  <r_epik_Charging_Adjusted_Penalty>  (1) 
0.87787264938008924

>  <r_epik_Ionization_Penalty>  (1) 
0.44040452980928141

>  <r_epik_Ionization_Penalty_Charging>  (1) 
0.43893632469004462

>  <r_epik_Ionization_Penalty_Neutral>  (1) 
0.0014682051192367804

>  <r_epik_State_Penalty>  (1) 
0.43893632469004457

>  <r_glide_ring_energy>  (1) 
0

>  <r_i_docking_score>  (1) 
-5.3654781689254003

>  <r_i_glide_ecoul>  (1) 
-6.2404534593750309

>  <r_i_glide_eff_state_penalty>  (1) 
0.43893632469004457

>  <r_i_glide_einternal>  (1) 
7.9282334140919843

>  <r_i_glide_emodel>  (1) 
-47.354498142520796

>  <r_i_glide_emodel_strain>  (1) 
0.9717101617127355

>  <r_i_glide_energy>  (1) 
-36.00965258774842

>  <r_i_glide_erotb>  (1) 
0.96983297192060391

>  <r_i_glide_esite>  (1) 
0

>  <r_i_glide_evdw>  (1) 
-29.769199128373387

>  <r_i_glide_gscore>  (1) 
-5.8044144936154449

>  <r_i_glide_gscore_strain>  (1) 
0

>  <r_i_glide_hbond>  (1) 
-0.083198274671109018

>  <r_i_glide_ligand_efficiency>  (1) 
-0.19872141366390372

>  <r_i_glide_ligand_efficiency_ln>  (1) 
-1.2489948609049424

>  <r_i_glide_ligand_efficiency_sa>  (1) 
-0.59616424099171128

>  <r_i_glide_lipo>  (1) 
-2.2088888667885267

>  <r_i_glide_metal>  (1) 
-0

>  <r_i_glide_rewards>  (1) 
-2.0576323487514885

>  <r_lp_Energy>  (1) 
34.499494999999996

>  <r_lp_tautomer_probability>  (1) 
0.99995000000000001

>  <s_epik_cmdline>  (1) 
J2VwaWtfcHl0aG9uJywgJy1waHQnLCAnMS4wJywgJy1waCcsICc3LjQnLCAnLXRuJywgJzgnLCAnLW1hJywgJzUwMCcsICctaW1hZScsICc8aW5maWxlLm1hZT4nLCAnLW9tYWUnLCAnPG91dGZpbGUubWFlPic=

>  <s_epik_input>  (1) 
W0NIM11OMVtDSDJdW0NIMl1DKD1PKVtDQEBdMShbQ0gzXSlDKD1PKVtOSF1bQ0gyXVtDSDJdW0NIMl1bQ0BASF0yW0NIMl1bQ0gyXU4oQzI9TyljKFtjSF1bY0hdW2NIXTMpW2NIXWMzW05IMl0=

>  <s_glide_docking_method>  (1) 
confgen

>  <s_i_glide_gridfile>  (1) 
gpcr_drd2_6luq_protein_autoprepared_prepared

>  <s_lp_Force_Field>  (1) 
S-OPLS

>  <s_lp_Variant>  (1) 
DiffSBDD_44_num_sample_100-5

>  <s_m_source_file>  (1) 
generated__ligand_DiffSBDD_2026-05-06_prepared.sdf

>  <GenAI_Model>  (1) 
DiffSBDD

>  <Protein>  (1) 
generic_title2

$$$$
DiffSBDD_33_num_sample_100
     RDKit          3D

  0  0  0  0  0  0  0  0  0  0999 V3000
M  V30 BEGIN CTAB
M  V30 COUNTS 82 83 0 0 1
M  V30 BEGIN ATOM
M  V30 1 C 6.600397 7.112601 -15.491624 0
M  V30 2 C 9.808686 5.888888 -9.121412 0
M  V30 3 C 8.357674 5.581702 -11.516281 0
M  V30 4 C 7.464351 10.086982 -22.316203 0
M  V30 5 C 7.612137 4.862462 -16.236352 0
M  V30 6 C 7.525268 5.403039 -12.774835 0
M  V30 7 C 8.752710 6.867418 -11.091661 0
M  V30 8 C 7.402955 6.027355 -15.254570 0
M  V30 9 C 5.813423 7.368686 -16.712115 0
M  V30 10 C 5.602247 6.543403 -17.708793 0
M  V30 11 C 8.745068 5.186628 -17.241597 0
M  V30 12 C 5.231146 6.083986 -20.119892 0
M  V30 13 C 9.897277 8.347708 -21.111854 0
M  V30 14 C 9.042234 4.170359 -18.374158 0
M  V30 15 C 5.978527 10.415918 -22.518793 0
M  V30 16 C 11.332435 8.697344 -9.096454 0 CFG=2
M  V30 17 C 8.235223 5.948675 -13.992988 0
M  V30 18 C 11.337337 7.820734 -21.040883 0
M  V30 19 C 5.434832 5.676142 -18.678510 0
M  V30 20 C 9.434849 4.622004 -9.560424 0
M  V30 21 C 7.784577 8.613398 -22.620766 0 CFG=1
M  V30 22 C 8.037858 4.086826 -19.549209 0
M  V30 23 C 12.318710 8.038350 -10.062506 0
M  V30 24 O 11.714407 8.317558 -7.786100 0
M  V30 25 C 8.717988 4.464282 -10.758734 0
M  V30 26 N 9.035549 8.569484 -8.135247 0 CHG=1
M  V30 27 C 9.291713 8.272253 -22.529684 0
M  V30 28 C 9.475538 7.016106 -9.876941 0
M  V30 29 C 9.831797 8.390216 -9.356081 0 CFG=2
M  V30 30 C 7.784113 5.424660 -20.294775 0
M  V30 31 O 11.775445 7.774490 -19.697242 0
M  V30 32 O 7.054693 7.808681 -21.704323 0
M  V30 33 C 6.414258 5.596490 -21.020736 0 CFG=2
M  V30 34 C 6.609872 6.554770 -22.211210 0
M  V30 35 H 6.582008 7.880729 -14.732681 0
M  V30 36 H 10.352030 5.995990 -8.195244 0
M  V30 37 H 8.057515 10.724200 -22.974679 0
M  V30 38 H 7.755078 10.332355 -21.294424 0
M  V30 39 H 7.922045 3.993375 -15.654797 0
M  V30 40 H 6.697420 4.510122 -16.688499 0
M  V30 41 H 7.276027 4.352070 -12.925679 0
M  V30 42 H 6.580531 5.928997 -12.627647 0
M  V30 43 H 8.471169 7.738126 -11.664276 0
M  V30 44 H 5.450108 8.380482 -16.820405 0
M  V30 45 H 8.578445 6.169311 -17.667641 0
M  V30 46 H 9.663014 5.301749 -16.664019 0
M  V30 47 H 5.128852 7.169863 -20.172195 0
M  V30 48 H 4.289957 5.672382 -20.484542 0
M  V30 49 H 9.286286 7.770217 -20.423934 0
M  V30 50 H 9.873063 9.369296 -20.744547 0
M  V30 51 H 10.014228 4.428286 -18.798207 0
M  V30 52 H 9.167341 3.177649 -17.940173 0
M  V30 53 H 5.778785 11.468484 -22.327236 0
M  V30 54 H 5.348781 9.831049 -21.847015 0
M  V30 55 H 5.666456 10.200240 -23.541334 0
M  V30 56 H 11.463895 9.777851 -9.148200 0
M  V30 57 H 9.172152 5.419662 -14.175769 0
M  V30 58 H 8.498285 6.969278 -13.744266 0
M  V30 59 H 11.392252 6.812912 -21.453282 0
M  V30 60 H 12.012849 8.448471 -21.623654 0
M  V30 61 H 5.573341 4.627856 -18.503278 0
M  V30 62 H 9.718440 3.769302 -8.976533 0
M  V30 63 H 7.446578 8.413847 -23.639717 0
M  V30 64 H 8.430289 3.377879 -20.279195 0
M  V30 65 H 7.127886 3.605559 -19.211064 0
M  V30 66 H 12.009121 8.169331 -11.091675 0
M  V30 67 H 12.385368 6.969294 -9.891626 0
M  V30 68 H 13.320005 8.457636 -9.953766 0
M  V30 69 H 11.933281 7.397212 -7.789648 0
M  V30 70 H 8.439236 3.480787 -11.091686 0
M  V30 71 H 8.097736 8.266528 -8.431325 0
M  V30 72 H 9.027237 9.531559 -7.837335 0
M  V30 73 H 9.440122 7.263994 -22.916120 0
M  V30 74 H 9.851405 8.928706 -23.197461 0
M  V30 75 H 9.434840 9.095118 -10.079078 0
M  V30 76 H 7.901110 6.276252 -19.633368 0
M  V30 77 H 8.596501 5.531500 -21.014461 0
M  V30 78 H 11.834728 8.656210 -19.353572 0
M  V30 79 H 6.141937 4.621617 -21.427497 0
M  V30 80 H 5.683087 6.692140 -22.769277 0
M  V30 81 H 7.339032 6.128658 -22.901932 0
M  V30 82 H 9.378150 7.965669 -7.404210 0
M  V30 END ATOM
M  V30 BEGIN BOND
M  V30 1 1 6 3
M  V30 2 2 7 3
M  V30 3 2 8 1
M  V30 4 1 8 5
M  V30 5 1 9 1
M  V30 6 2 10 9
M  V30 7 1 11 5
M  V30 8 1 14 11
M  V30 9 1 15 4
M  V30 10 1 17 6
M  V30 11 1 17 8
M  V30 12 1 18 13
M  V30 13 2 19 10
M  V30 14 1 19 12
M  V30 15 1 20 2
M  V30 16 1 21 4
M  V30 17 1 22 14
M  V30 18 1 23 16
M  V30 19 1 24 16
M  V30 20 1 25 3
M  V30 21 2 25 20
M  V30 22 1 27 13
M  V30 23 1 27 21
M  V30 24 2 28 2
M  V30 25 1 28 7
M  V30 26 1 29 16
M  V30 27 1 29 26
M  V30 28 1 29 28
M  V30 29 1 30 22
M  V30 30 1 31 18
M  V30 31 1 32 21
M  V30 32 1 33 12
M  V30 33 1 33 30
M  V30 34 1 34 32
M  V30 35 1 34 33
M  V30 36 1 35 1
M  V30 37 1 36 2
M  V30 38 1 37 4
M  V30 39 1 38 4
M  V30 40 1 39 5
M  V30 41 1 40 5
M  V30 42 1 41 6
M  V30 43 1 42 6
M  V30 44 1 43 7
M  V30 45 1 44 9
M  V30 46 1 45 11
M  V30 47 1 46 11
M  V30 48 1 47 12
M  V30 49 1 48 12
M  V30 50 1 49 13
M  V30 51 1 50 13
M  V30 52 1 51 14
M  V30 53 1 52 14
M  V30 54 1 53 15
M  V30 55 1 54 15
M  V30 56 1 55 15
M  V30 57 1 16 56 CFG=1
M  V30 58 1 57 17
M  V30 59 1 58 17
M  V30 60 1 59 18
M  V30 61 1 60 18
M  V30 62 1 61 19
M  V30 63 1 62 20
M  V30 64 1 21 63 CFG=3
M  V30 65 1 64 22
M  V30 66 1 65 22
M  V30 67 1 66 23
M  V30 68 1 67 23
M  V30 69 1 68 23
M  V30 70 1 69 24
M  V30 71 1 70 25
M  V30 72 1 71 26
M  V30 73 1 72 26
M  V30 74 1 73 27
M  V30 75 1 74 27
M  V30 76 1 29 75 CFG=3
M  V30 77 1 76 30
M  V30 78 1 77 30
M  V30 79 1 78 31
M  V30 80 1 33 79 CFG=3
M  V30 81 1 80 34
M  V30 82 1 81 34
M  V30 83 1 82 26
M  V30 END BOND
M  V30 END CTAB
M  END
>  <i_epik_Tot_Q>  (1) 
1

>  <i_epik_Tot_abs_Q>  (1) 
1

>  <i_i_glide_confnum>  (1) 
500

>  <i_i_glide_lignum>  (1) 
58

>  <i_i_glide_posenum>  (1) 
382

>  <i_i_glide_rotatable_bonds>  (1) 
14

>  <i_lp_mmshare_version>  (1) 
72125

>  <i_m_source_file_index>  (1) 
34

>  <i_f3d_flags>  (1) 
0

>  <num_sample>  (1) 
100

>  <b_lp_Chiralities_Consistent>  (1) 
1

>  <r_epik_Charging_Adjusted_Penalty>  (1) 
0.1638001962036823

>  <r_epik_Ionization_Penalty>  (1) 
0.081900497226930546

>  <r_epik_Ionization_Penalty_Charging>  (1) 
0.081900098101841165

>  <r_epik_Ionization_Penalty_Neutral>  (1) 
3.991250893861813e-07

>  <r_epik_State_Penalty>  (1) 
0.081900098101841151

>  <r_glide_ring_energy>  (1) 
0

>  <r_i_docking_score>  (1) 
-5.3554962972199913

>  <r_i_glide_ecoul>  (1) 
-4.1614260381034986

>  <r_i_glide_eff_state_penalty>  (1) 
0.081900098101841151

>  <r_i_glide_einternal>  (1) 
7.5310294080387239

>  <r_i_glide_emodel>  (1) 
-23.281024248600126

>  <r_i_glide_emodel_strain>  (1) 
1.1662392223251032

>  <r_i_glide_energy>  (1) 
-24.855803404430162

>  <r_i_glide_erotb>  (1) 
0.70221122373047928

>  <r_i_glide_esite>  (1) 
-0.093398660182284446

>  <r_i_glide_evdw>  (1) 
-20.694377366326663

>  <r_i_glide_gscore>  (1) 
-5.4373963953218327

>  <r_i_glide_gscore_strain>  (1) 
0

>  <r_i_glide_hbond>  (1) 
-0.35925344784100438

>  <r_i_glide_ligand_efficiency>  (1) 
-0.15751459697705858

>  <r_i_glide_ligand_efficiency_ln>  (1) 
-1.1831793486388584

>  <r_i_glide_ligand_efficiency_sa>  (1) 
-0.5102861472403456

>  <r_i_glide_lipo>  (1) 
-2.4181603723670011

>  <r_i_glide_metal>  (1) 
-0

>  <r_i_glide_rewards>  (1) 
-1.6098623646301644

>  <r_lp_Energy>  (1) 
13.020887999999999

>  <s_epik_cmdline>  (1) 
J2VwaWtfcHl0aG9uJywgJy1waHQnLCAnMS4wJywgJy1waCcsICc3LjQnLCAnLXRuJywgJzgnLCAnLW1hJywgJzUwMCcsICctaW1hZScsICc8aW5maWxlLm1hZT4nLCAnLW9tYWUnLCAnPG91dGZpbGUubWFlPic=

>  <s_epik_input>  (1) 
W0NIM11bQ0BIXShbT0hdKVtDQEhdKFtOSDJdKWMoW2NIXVtjSF1bY0hdMSlbY0hdYzFbQ0gyXVtDSDJdQ1wyPVtDSF1cW0NIXT1DPVtDSF1bQ0gyXVtDQEhdKFtDSDJdW0NIMl1bQ0gyXVtDSDJdW0NIMl0yKVtDSDJdT1tDQEBIXShbQ0gyXVtDSDNdKVtDSDJdW0NIMl1bQ0gyXVtPSF0=

>  <s_glide_docking_method>  (1) 
confgen

>  <s_i_glide_gridfile>  (1) 
gpcr_drd2_6luq_protein_autoprepared_prepared

>  <s_lp_Force_Field>  (1) 
S-OPLS

>  <s_lp_Variant>  (1) 
DiffSBDD_33_num_sample_100-1

>  <s_m_source_file>  (1) 
generated__ligand_DiffSBDD_2026-05-06_prepared.sdf

>  <GenAI_Model>  (1) 
DiffSBDD

>  <Protein>  (1) 
generic_title2

$$$$
DiffSBDD_20_num_sample_100
     RDKit          3D

  0  0  0  0  0  0  0  0  0  0999 V3000
M  V30 BEGIN CTAB
M  V30 COUNTS 52 53 0 0 1
M  V30 BEGIN ATOM
M  V30 1 C 12.244984 9.155515 -4.165470 0
M  V30 2 C 7.198965 6.567379 -13.211474 0 CFG=2
M  V30 3 C 11.621408 8.913806 -7.722126 0
M  V30 4 C 12.634839 8.416870 -3.034112 0
M  V30 5 C 11.441793 8.563172 -5.158970 0
M  V30 6 C 6.345412 5.386241 -15.305458 0
M  V30 7 C 11.017071 9.369682 -6.373627 0
M  V30 8 C 9.542806 7.518546 -8.411075 0
M  V30 9 C 12.233305 7.079344 -2.898370 0
M  V30 10 C 7.885919 5.130054 -11.197261 0
M  V30 11 S 9.434840 5.769298 -10.538526 0
M  V30 12 C 11.034840 7.225054 -5.017845 0
M  V30 13 C 7.999505 7.784640 -12.691664 0
M  V30 14 C 6.928147 4.017911 -13.268464 0
M  V30 15 O 6.996883 4.664556 -10.486118 0
M  V30 16 C 11.085618 7.584761 -8.286194 0
M  V30 17 C 7.750674 5.198982 -12.718329 0 CFG=1
M  V30 18 C 8.981197 6.149323 -8.831663 0 CFG=1
M  V30 19 C 11.434841 6.485100 -3.891606 0
M  V30 20 C 9.407829 5.045641 -7.891668 0
M  V30 21 C 7.153639 6.569965 -14.751020 0
M  V30 22 C 6.906321 4.048824 -14.799121 0
M  V30 23 H 12.562884 10.169302 -4.271349 0
M  V30 24 H 6.173216 6.675807 -12.853887 0
M  V30 25 H 11.434840 9.683127 -8.471149 0
M  V30 26 H 12.706906 8.858849 -7.631360 0
M  V30 27 H 13.249373 8.877338 -2.273585 0
M  V30 28 H 6.354658 5.406621 -16.395308 0
M  V30 29 H 5.303856 5.487412 -15.000065 0
M  V30 30 H 9.930903 9.369302 -6.411310 0
M  V30 31 H 11.297832 10.410763 -6.208882 0
M  V30 32 H 9.065590 7.758907 -7.463479 0
M  V30 33 H 9.205672 8.283273 -9.111779 0
M  V30 34 H 12.535255 6.507459 -2.033018 0
M  V30 35 H 10.415853 6.766410 -5.765978 0
M  V30 36 H 9.073016 7.600887 -12.701752 0
M  V30 37 H 7.834837 8.681313 -13.284660 0
M  V30 38 H 7.726134 8.024800 -11.663788 0
M  V30 39 H 7.349157 3.070460 -12.928023 0
M  V30 40 H 5.906654 4.057740 -12.887717 0
M  V30 41 H 11.529230 7.426160 -9.269218 0
M  V30 42 H 11.465164 6.769816 -7.674410 0
M  V30 43 H 8.763048 5.090617 -13.111406 0
M  V30 44 H 7.899062 6.169301 -8.741877 0
M  V30 45 H 11.122484 5.461192 -3.788427 0
M  V30 46 H 9.246899 5.369301 -6.866073 0
M  V30 47 H 8.794043 4.169301 -8.060847 0
M  V30 48 H 10.455871 4.790805 -8.037221 0
M  V30 49 H 8.171915 6.520271 -15.135003 0
M  V30 50 H 6.727412 7.505783 -15.113950 0
M  V30 51 H 7.915327 3.900349 -15.186506 0
M  V30 52 H 6.311998 3.214975 -15.166026 0
M  V30 END ATOM
M  V30 BEGIN BOND
M  V30 1 1 4 1
M  V30 2 2 5 1
M  V30 3 1 7 3
M  V30 4 1 7 5
M  V30 5 2 9 4
M  V30 6 1 11 10
M  V30 7 1 12 5
M  V30 8 1 13 2
M  V30 9 2 15 10
M  V30 10 1 16 3
M  V30 11 1 16 8
M  V30 12 1 17 2
M  V30 13 1 17 10
M  V30 14 1 17 14
M  V30 15 1 18 8
M  V30 16 1 18 11
M  V30 17 1 19 9
M  V30 18 2 19 12
M  V30 19 1 20 18
M  V30 20 1 21 2
M  V30 21 1 21 6
M  V30 22 1 22 6
M  V30 23 1 22 14
M  V30 24 1 23 1
M  V30 25 1 2 24 CFG=1
M  V30 26 1 25 3
M  V30 27 1 26 3
M  V30 28 1 27 4
M  V30 29 1 28 6
M  V30 30 1 29 6
M  V30 31 1 30 7
M  V30 32 1 31 7
M  V30 33 1 32 8
M  V30 34 1 33 8
M  V30 35 1 34 9
M  V30 36 1 35 12
M  V30 37 1 36 13
M  V30 38 1 37 13
M  V30 39 1 38 13
M  V30 40 1 39 14
M  V30 41 1 40 14
M  V30 42 1 41 16
M  V30 43 1 42 16
M  V30 44 1 17 43 CFG=3
M  V30 45 1 18 44 CFG=3
M  V30 46 1 45 19
M  V30 47 1 46 20
M  V30 48 1 47 20
M  V30 49 1 48 20
M  V30 50 1 49 21
M  V30 51 1 50 21
M  V30 52 1 51 22
M  V30 53 1 52 22
M  V30 END BOND
M  V30 END CTAB
M  END
>  <i_epik_Tot_Q>  (1) 
0

>  <i_epik_Tot_abs_Q>  (1) 
0

>  <i_i_glide_confnum>  (1) 
129

>  <i_i_glide_lignum>  (1) 
32

>  <i_i_glide_posenum>  (1) 
45

>  <i_i_glide_rotatable_bonds>  (1) 
8

>  <i_lp_mmshare_version>  (1) 
72125

>  <i_m_source_file_index>  (1) 
21

>  <i_f3d_flags>  (1) 
0

>  <num_sample>  (1) 
100

>  <b_lp_Chiralities_Consistent>  (1) 
1

>  <r_epik_Charging_Adjusted_Penalty>  (1) 
0

>  <r_epik_Ionization_Penalty>  (1) 
0

>  <r_epik_Ionization_Penalty_Charging>  (1) 
0

>  <r_epik_Ionization_Penalty_Neutral>  (1) 
0

>  <r_epik_State_Penalty>  (1) 
-0

>  <r_glide_ring_energy>  (1) 
0

>  <r_i_docking_score>  (1) 
-5.3497094734763735

>  <r_i_glide_ecoul>  (1) 
-1.1882684220535071

>  <r_i_glide_eff_state_penalty>  (1) 
-0

>  <r_i_glide_einternal>  (1) 
5.0447466457437145

>  <r_i_glide_emodel>  (1) 
-39.061033786938793

>  <r_i_glide_emodel_strain>  (1) 
1.110603944200161

>  <r_i_glide_energy>  (1) 
-31.743195343348553

>  <r_i_glide_erotb>  (1) 
1.2864650569138796

>  <r_i_glide_esite>  (1) 
-0.025880322602585683

>  <r_i_glide_evdw>  (1) 
-30.554926921295046

>  <r_i_glide_gscore>  (1) 
-5.3497094734763735

>  <r_i_glide_gscore_strain>  (1) 
0

>  <r_i_glide_hbond>  (1) 
0

>  <r_i_glide_ligand_efficiency>  (1) 
-0.24316861243074425

>  <r_i_glide_ligand_efficiency_ln>  (1) 
-1.3076641307119226

>  <r_i_glide_ligand_efficiency_sa>  (1) 
-0.68136801601184194

>  <r_i_glide_lipo>  (1) 
-2.8755141372914306

>  <r_i_glide_metal>  (1) 
-0

>  <r_i_glide_rewards>  (1) 
-2.0287934611234579

>  <r_lp_Energy>  (1) 
15.270403

>  <r_lp_tautomer_probability>  (1) 
1

>  <s_epik_cmdline>  (1) 
J2VwaWtfcHl0aG9uJywgJy1waHQnLCAnMS4wJywgJy1waCcsICc3LjQnLCAnLXRuJywgJzgnLCAnLW1hJywgJzUwMCcsICctaW1hZScsICc8aW5maWxlLm1hZT4nLCAnLW9tYWUnLCAnPG91dGZpbGUubWFlPic=

>  <s_epik_input>  (1) 
W2NIXTFbY0hdW2NIXVtjSF1bY0hdYzFbQ0gyXVtDSDJdW0NIMl1bQ0gyXVtDQEhdKFtDSDNdKVNDKD1PKVtDQEhdKFtDQEhdMltDSDNdKVtDSDJdW0NIMl1bQ0gyXVtDSDJdMg==

>  <s_glide_docking_method>  (1) 
confgen

>  <s_i_glide_gridfile>  (1) 
gpcr_drd2_6luq_protein_autoprepared_prepared

>  <s_lp_Force_Field>  (1) 
S-OPLS

>  <s_lp_Variant>  (1) 
DiffSBDD_20_num_sample_100-1

>  <s_m_source_file>  (1) 
generated__ligand_DiffSBDD_2026-05-06_prepared.sdf

>  <GenAI_Model>  (1) 
DiffSBDD

>  <Protein>  (1) 
generic_title2

$$$$
DiffSBDD_61_num_sample_100
     RDKit          3D

  0  0  0  0  0  0  0  0  0  0999 V3000
M  V30 BEGIN CTAB
M  V30 COUNTS 51 53 0 0 1
M  V30 BEGIN ATOM
M  V30 1 N 11.434821 7.924854 -5.414153 0
M  V30 2 C 7.092709 4.660444 -14.851641 0
M  V30 3 C 7.649236 5.305263 -13.560581 0 CFG=1
M  V30 4 O 12.208583 7.056096 -2.005564 0
M  V30 5 C 12.634918 8.372724 -2.067610 0
M  V30 6 O 7.246902 6.667830 -13.467038 0
M  V30 7 C 9.769984 7.740095 -10.523503 0
M  V30 8 O 5.435372 4.102356 -10.691669 0
M  V30 9 C 11.044119 7.851252 -9.688165 0
M  V30 10 C 9.657742 5.605849 -12.097921 0 CFG=1
M  V30 11 C 10.430916 6.968464 -5.875973 0
M  V30 12 C 7.188137 4.550384 -12.296202 0 CFG=2
M  V30 13 C 5.725765 4.797876 -11.882252 0
M  V30 14 C 10.569459 6.756069 -7.400151 0
M  V30 15 C 9.191360 5.214808 -13.511675 0
M  V30 16 C 10.724589 8.082062 -8.191753 0
M  V30 17 O 7.418463 3.473948 -15.081537 0 CHG=-1
M  V30 18 C 11.541515 9.220080 -6.068089 0
M  V30 19 C 9.932620 7.131989 -11.936721 0
M  V30 20 C 11.803205 8.969595 -7.556957 0
M  V30 21 C 11.719400 6.765055 -3.252393 0
M  V30 22 C 11.834873 7.853119 -4.057555 0
M  V30 23 C 12.431399 8.894539 -3.315916 0
M  V30 24 S 8.368305 4.969297 -10.981752 0
M  V30 25 O 6.356659 5.369442 -15.575984 0
M  V30 26 H 13.052113 8.766151 -1.151573 0
M  V30 27 H 7.490639 6.981755 -12.608878 0
M  V30 28 H 9.343216 8.737831 -10.622748 0
M  V30 29 H 9.034870 7.211895 -9.931901 0
M  V30 30 H 5.835635 4.563439 -9.964924 0
M  V30 31 H 11.669041 6.969256 -9.805637 0
M  V30 32 H 11.632263 8.677244 -10.089374 0
M  V30 33 H 10.582717 5.071313 -11.891607 0
M  V30 34 H 9.441496 7.366549 -5.651449 0
M  V30 35 H 10.510108 6.004293 -5.377721 0
M  V30 36 H 7.314602 3.478913 -12.459606 0
M  V30 37 H 5.045730 4.456288 -12.663253 0
M  V30 38 H 5.524190 5.856730 -11.717701 0
M  V30 39 H 9.709912 6.194914 -7.770276 0
M  V30 40 H 11.435084 6.121359 -7.578047 0
M  V30 41 H 9.682687 5.769271 -14.305695 0
M  V30 42 H 9.482455 4.175957 -13.673178 0
M  V30 43 H 9.780964 8.627364 -8.113122 0
M  V30 44 H 10.623331 9.787389 -5.919607 0
M  V30 45 H 12.368024 9.817956 -5.690387 0
M  V30 46 H 10.926232 7.357259 -12.324766 0
M  V30 47 H 9.273459 7.696597 -12.592254 0
M  V30 48 H 12.785099 8.510852 -7.681808 0
M  V30 49 H 11.834819 9.914976 -8.087424 0
M  V30 50 H 11.334223 5.768582 -3.380897 0
M  V30 51 H 12.676452 9.892675 -3.635910 0
M  V30 END ATOM
M  V30 BEGIN BOND
M  V30 1 1 3 2
M  V30 2 1 5 4
M  V30 3 1 3 6 CFG=1
M  V30 4 1 9 7
M  V30 5 1 11 1
M  V30 6 1 12 3
M  V30 7 1 13 8
M  V30 8 1 13 12
M  V30 9 1 14 11
M  V30 10 1 15 3
M  V30 11 1 15 10
M  V30 12 1 16 9
M  V30 13 1 16 14
M  V30 14 1 17 2
M  V30 15 1 18 1
M  V30 16 1 19 7
M  V30 17 1 19 10
M  V30 18 1 20 16
M  V30 19 1 20 18
M  V30 20 1 21 4
M  V30 21 1 22 1
M  V30 22 2 22 21
M  V30 23 2 23 5
M  V30 24 1 23 22
M  V30 25 1 24 10
M  V30 26 1 24 12
M  V30 27 2 25 2
M  V30 28 1 26 5
M  V30 29 1 27 6
M  V30 30 1 28 7
M  V30 31 1 29 7
M  V30 32 1 30 8
M  V30 33 1 31 9
M  V30 34 1 32 9
M  V30 35 1 10 33 CFG=1
M  V30 36 1 34 11
M  V30 37 1 35 11
M  V30 38 1 12 36 CFG=3
M  V30 39 1 37 13
M  V30 40 1 38 13
M  V30 41 1 39 14
M  V30 42 1 40 14
M  V30 43 1 41 15
M  V30 44 1 42 15
M  V30 45 1 43 16
M  V30 46 1 44 18
M  V30 47 1 45 18
M  V30 48 1 46 19
M  V30 49 1 47 19
M  V30 50 1 48 20
M  V30 51 1 49 20
M  V30 52 1 50 21
M  V30 53 1 51 23
M  V30 END BOND
M  V30 END CTAB
M  END
>  <i_epik_Tot_Q>  (1) 
-1

>  <i_epik_Tot_abs_Q>  (1) 
1

>  <i_i_glide_confnum>  (1) 
474

>  <i_i_glide_lignum>  (1) 
123

>  <i_i_glide_posenum>  (1) 
46

>  <i_i_glide_rotatable_bonds>  (1) 
9

>  <i_lp_mmshare_version>  (1) 
72125

>  <i_m_source_file_index>  (1) 
62

>  <i_f3d_flags>  (1) 
0

>  <num_sample>  (1) 
100

>  <b_lp_Chiralities_Consistent>  (1) 
1

>  <r_epik_Charging_Adjusted_Penalty>  (1) 
0.8774089377882176

>  <r_epik_Ionization_Penalty>  (1) 
0.8774093123040011

>  <r_epik_Ionization_Penalty_Charging>  (1) 
6.4905039586267643e-05

>  <r_epik_Ionization_Penalty_Neutral>  (1) 
0.87734440726441487

>  <r_epik_State_Penalty>  (1) 
0.87734403274863138

>  <r_glide_ring_energy>  (1) 
0

>  <r_i_docking_score>  (1) 
-5.3356857917449485

>  <r_i_glide_ecoul>  (1) 
-3.153028851721698

>  <r_i_glide_eff_state_penalty>  (1) 
0.87734403274863138

>  <r_i_glide_einternal>  (1) 
10.148572510471299

>  <r_i_glide_emodel>  (1) 
-41.644312507096259

>  <r_i_glide_emodel_strain>  (1) 
3.8336319587557313

>  <r_i_glide_energy>  (1) 
-38.609066625057231

>  <r_i_glide_erotb>  (1) 
0.85157240902219222

>  <r_i_glide_esite>  (1) 
0

>  <r_i_glide_evdw>  (1) 
-35.456037773335531

>  <r_i_glide_gscore>  (1) 
-6.2130298244935798

>  <r_i_glide_gscore_strain>  (1) 
0

>  <r_i_glide_hbond>  (1) 
-0.16836677706287589

>  <r_i_glide_ligand_efficiency>  (1) 
-0.21342743166979794

>  <r_i_glide_ligand_efficiency_ln>  (1) 
-1.2647174302437871

>  <r_i_glide_ligand_efficiency_sa>  (1) 
-0.62406559602370359

>  <r_i_glide_lipo>  (1) 
-2.4431247970851628

>  <r_i_glide_metal>  (1) 
-0

>  <r_i_glide_rewards>  (1) 
-2.2073544429427026

>  <r_lp_Energy>  (1) 
22.683494

>  <r_lp_tautomer_probability>  (1) 
1

>  <s_epik_cmdline>  (1) 
J2VwaWtfcHl0aG9uJywgJy1waHQnLCAnMS4wJywgJy1waCcsICc3LjQnLCAnLXRuJywgJzgnLCAnLW1hJywgJzUwMCcsICctaW1hZScsICc8aW5maWxlLm1hZT4nLCAnLW9tYWUnLCAnPG91dGZpbGUubWFlPic=

>  <s_epik_input>  (1) 
W2NIXTFbY0hdb1tjSF1jMU4yW0NIMl1bQ0gyXVtDSF0oW0NIMl1bQ0gyXTIpW0NIMl1bQ0gyXVtDSDJdW0NASF0oW0NIMl0zKVNbQ0BASF0oW0NIMl1bT0hdKVtDQF0zKFtPSF0pQyg9TylbT0hd

>  <s_glide_docking_method>  (1) 
confgen

>  <s_i_glide_gridfile>  (1) 
gpcr_drd2_6luq_protein_autoprepared_prepared

>  <s_lp_Force_Field>  (1) 
S-OPLS

>  <s_lp_Variant>  (1) 
DiffSBDD_61_num_sample_100-3

>  <s_m_source_file>  (1) 
generated__ligand_DiffSBDD_2026-05-06_prepared.sdf

>  <GenAI_Model>  (1) 
DiffSBDD

>  <Protein>  (1) 
generic_title2

$$$$
DiffSBDD_22_num_sample_100
     RDKit          3D

  0  0  0  0  0  0  0  0  0  0999 V3000
M  V30 BEGIN CTAB
M  V30 COUNTS 45 47 0 0 1
M  V30 BEGIN ATOM
M  V30 1 C 5.997993 6.969337 -14.388261 0
M  V30 2 C 6.771465 6.031817 -17.947964 0
M  V30 3 C 7.518377 5.939599 -12.779831 0
M  V30 4 C 12.386814 9.714086 -6.624502 0
M  V30 5 O 9.830247 4.569150 -11.684964 0
M  V30 6 C 4.868113 7.026202 -18.772344 0
M  V30 7 N 6.096523 6.455387 -16.816104 0
M  V30 8 C 9.168727 5.015910 -9.434948 0
M  V30 9 C 7.682720 5.368254 -15.161380 0
M  V30 10 C 9.007135 5.106323 -10.953831 0
M  V30 11 O 6.474312 6.055690 -20.243815 0 CHG=-1
M  V30 12 C 9.483700 7.224406 -6.407041 0
M  V30 13 O 11.434829 8.464166 -4.835127 0
M  V30 14 N 9.375356 6.275933 -8.698245 0
M  V30 15 N 7.930684 5.800308 -11.397742 0
M  V30 16 C 9.467720 5.963024 -7.274669 0
M  V30 17 C 10.467870 8.439217 -8.335916 0
M  V30 18 C 10.491284 7.115941 -9.132201 0
M  V30 19 C 6.452592 6.808964 -13.066316 0
M  V30 20 O 7.862172 5.462519 -17.949700 0
M  V30 21 C 11.399022 8.719552 -6.038931 0
M  V30 22 C 6.608122 6.259035 -15.451781 0
M  V30 23 S 4.576386 7.286276 -17.091667 0
M  V30 24 N 10.500479 8.153613 -6.888245 0
M  V30 25 C 8.134099 5.211513 -13.838307 0
M  V30 26 C 6.000440 6.380572 -19.130886 0
M  V30 27 H 5.181583 7.645410 -14.584128 0
M  V30 28 H 11.834948 10.539748 -7.075386 0
M  V30 29 H 13.028358 10.127894 -5.846679 0
M  V30 30 H 13.030104 9.226298 -7.357295 0
M  V30 31 H 4.143537 7.388252 -19.481639 0
M  V30 32 H 8.245552 4.568940 -9.066729 0
M  V30 33 H 9.964111 4.308826 -9.200923 0
M  V30 34 H 8.154508 4.792738 -15.927317 0
M  V30 35 H 8.514736 7.723021 -6.446096 0
M  V30 36 H 9.641281 6.917737 -5.373868 0
M  V30 37 H 7.356866 6.268590 -10.701672 0
M  V30 38 H 8.601785 5.369432 -6.986773 0
M  V30 39 H 10.363647 5.369332 -7.091586 0
M  V30 40 H 9.538660 8.969102 -8.551520 0
M  V30 41 H 11.262831 9.074484 -8.719443 0
M  V30 42 H 11.434749 6.593004 -8.982994 0
M  V30 43 H 10.408803 7.340397 -10.196090 0
M  V30 44 H 5.978086 7.358849 -12.265240 0
M  V30 45 H 8.933775 4.526094 -13.653248 0
M  V30 END ATOM
M  V30 BEGIN BOND
M  V30 1 1 7 2
M  V30 2 2 10 5
M  V30 3 1 10 8
M  V30 4 1 14 8
M  V30 5 1 15 3
M  V30 6 1 15 10
M  V30 7 1 16 12
M  V30 8 1 16 14
M  V30 9 1 18 14
M  V30 10 1 18 17
M  V30 11 2 19 1
M  V30 12 1 19 3
M  V30 13 2 20 2
M  V30 14 1 21 4
M  V30 15 2 21 13
M  V30 16 1 22 1
M  V30 17 1 22 7
M  V30 18 2 22 9
M  V30 19 1 23 6
M  V30 20 1 23 7
M  V30 21 1 24 12
M  V30 22 1 24 17
M  V30 23 1 24 21
M  V30 24 2 25 3
M  V30 25 1 25 9
M  V30 26 1 26 2
M  V30 27 2 26 6
M  V30 28 1 26 11
M  V30 29 1 27 1
M  V30 30 1 28 4
M  V30 31 1 29 4
M  V30 32 1 30 4
M  V30 33 1 31 6
M  V30 34 1 32 8
M  V30 35 1 33 8
M  V30 36 1 34 9
M  V30 37 1 35 12
M  V30 38 1 36 12
M  V30 39 1 37 15
M  V30 40 1 38 16
M  V30 41 1 39 16
M  V30 42 1 40 17
M  V30 43 1 41 17
M  V30 44 1 42 18
M  V30 45 1 43 18
M  V30 46 1 44 19
M  V30 47 1 45 25
M  V30 END BOND
M  V30 END CTAB
M  END
>  <i_epik_Tot_Q>  (1) 
-1

>  <i_epik_Tot_abs_Q>  (1) 
1

>  <i_i_glide_confnum>  (1) 
67

>  <i_i_glide_lignum>  (1) 
36

>  <i_i_glide_posenum>  (1) 
122

>  <i_i_glide_rotatable_bonds>  (1) 
6

>  <i_lp_mmshare_version>  (1) 
72125

>  <i_m_source_file_index>  (1) 
23

>  <i_f3d_flags>  (1) 
0

>  <num_sample>  (1) 
100

>  <b_lp_Chiralities_Consistent>  (1) 
1

>  <r_epik_Charging_Adjusted_Penalty>  (1) 
0.47379864770937913

>  <r_epik_Ionization_Penalty>  (1) 
0.47380121227694488

>  <r_epik_Ionization_Penalty_Charging>  (1) 
5.626758328864977e-05

>  <r_epik_Ionization_Penalty_Neutral>  (1) 
0.47374494469365624

>  <r_epik_State_Penalty>  (1) 
0.47374238012609049

>  <r_glide_ring_energy>  (1) 
0

>  <r_i_docking_score>  (1) 
-5.3263562914359808

>  <r_i_glide_ecoul>  (1) 
-0.73238427188441957

>  <r_i_glide_eff_state_penalty>  (1) 
0.47374238012609049

>  <r_i_glide_einternal>  (1) 
3.8714356248241195

>  <r_i_glide_emodel>  (1) 
-53.640955133818323

>  <r_i_glide_emodel_strain>  (1) 
0

>  <r_i_glide_energy>  (1) 
-41.241106133442194

>  <r_i_glide_erotb>  (1) 
0.68631235361621001

>  <r_i_glide_esite>  (1) 
-0.068679556098447253

>  <r_i_glide_evdw>  (1) 
-40.508721861557774

>  <r_i_glide_gscore>  (1) 
-5.800098671562071

>  <r_i_glide_gscore_strain>  (1) 
0

>  <r_i_glide_hbond>  (1) 
-0.14318974599529874

>  <r_i_glide_ligand_efficiency>  (1) 
-0.20485985736292234

>  <r_i_glide_ligand_efficiency_ln>  (1) 
-1.2508772978432434

>  <r_i_glide_ligand_efficiency_sa>  (1) 
-0.60689652201215227

>  <r_i_glide_lipo>  (1) 
-1.6752639616556053

>  <r_i_glide_metal>  (1) 
-0

>  <r_i_glide_rewards>  (1) 
-2.4639840275683778

>  <r_lp_Energy>  (1) 
63.227018999999999

>  <r_lp_tautomer_probability>  (1) 
1

>  <s_epik_cmdline>  (1) 
J2VwaWtfcHl0aG9uJywgJy1waHQnLCAnMS4wJywgJy1waCcsICc3LjQnLCAnLXRuJywgJzgnLCAnLW1hJywgJzUwMCcsICctaW1hZScsICc8aW5maWxlLm1hZT4nLCAnLW9tYWUnLCAnPG91dGZpbGUubWFlPic=

>  <s_epik_input>  (1) 
Tz1DMVtDSDJdU04oQzE9TyljKFtjSF1bY0hdMilbY0hdW2NIXWMyW05IXUMoPU8pW0NIMl1OM1tDSDJdW0NIMl1OKFtDSDJdW0NIMl0zKUMoPU8pW0NIM10=

>  <s_glide_docking_method>  (1) 
confgen

>  <s_i_glide_gridfile>  (1) 
gpcr_drd2_6luq_protein_autoprepared_prepared

>  <s_lp_Force_Field>  (1) 
S-OPLS

>  <s_lp_Variant>  (1) 
DiffSBDD_22_num_sample_100-2

>  <s_m_source_file>  (1) 
generated__ligand_DiffSBDD_2026-05-06_prepared.sdf

>  <GenAI_Model>  (1) 
DiffSBDD

>  <Protein>  (1) 
generic_title2

$$$$
DiffSBDD_53_num_sample_100
     RDKit          3D

  0  0  0  0  0  0  0  0  0  0999 V3000
M  V30 BEGIN CTAB
M  V30 COUNTS 57 60 0 0 1
M  V30 BEGIN ATOM
M  V30 1 N 10.091178 6.738402 -9.038526 0
M  V30 2 C 4.871086 5.078335 -20.777764 0
M  V30 3 C 7.453317 4.835980 -10.898481 0
M  V30 4 C 11.158382 7.573550 -9.109342 0
M  V30 5 O 5.834574 6.558527 -14.172568 0
M  V30 6 C 7.515206 3.996934 -15.825633 0
M  V30 7 C 7.762517 5.121016 -12.240574 0
M  V30 8 O 7.726476 5.674876 -23.727499 0
M  V30 9 C 6.261675 8.747334 -21.298213 0
M  V30 10 C 5.953521 6.198229 -20.685314 0 CFG=2
M  V30 11 F 4.235955 7.683580 -21.482068 0
M  V30 12 C 11.738692 8.023811 -7.767082 0
M  V30 13 F 11.657895 7.029865 -6.878935 0
M  V30 14 C 7.242289 5.678155 -21.370848 0
M  V30 15 C 8.239386 5.369301 -9.861816 0
M  V30 16 C 9.341152 6.197454 -10.153913 0
M  V30 17 F 13.012161 8.395849 -7.909856 0
M  V30 18 C 6.450415 5.531065 -14.457501 0
M  V30 19 N 6.449174 5.868936 -16.945705 0
M  V30 20 C 7.009233 6.072884 -22.813010 0
M  V30 21 C 5.539096 7.005373 -16.918859 0
M  V30 22 C 9.664030 6.479138 -11.514019 0
M  V30 23 C 6.899668 4.541346 -13.352417 0 CFG=1
M  V30 24 C 6.818847 5.472856 -18.294883 0
M  V30 25 C 5.835123 6.989574 -23.049474 0
M  V30 26 C 6.823364 5.120996 -15.810934 0
M  V30 27 C 6.249026 6.584685 -19.196795 0 CFG=2
M  V30 28 C 5.071288 7.133680 -18.371060 0
M  V30 29 S 7.833528 3.227641 -14.286972 0
M  V30 30 O 11.663308 7.967586 -10.156479 0
M  V30 31 C 5.533372 7.417724 -21.598922 0 CFG=1
M  V30 32 C 8.872539 5.937084 -12.548070 0
M  V30 33 H 9.768110 6.479214 -8.117905 0
M  V30 34 H 4.659299 4.799655 -21.809953 0
M  V30 35 H 5.180338 4.161991 -20.278102 0
M  V30 36 H 3.917373 5.370517 -20.342658 0
M  V30 37 H 6.607061 4.207481 -10.660776 0
M  V30 38 H 7.880170 3.524297 -16.726165 0
M  V30 39 H 7.345811 8.642879 -21.336800 0
M  V30 40 H 5.984801 9.513120 -22.023692 0
M  V30 41 H 6.002117 9.141392 -20.316782 0
M  V30 42 H 11.176573 8.872983 -7.376764 0
M  V30 43 H 8.132986 6.189637 -21.006960 0
M  V30 44 H 7.383548 4.602344 -21.259130 0
M  V30 45 H 7.987331 5.151890 -8.834451 0
M  V30 46 H 4.665240 6.844325 -16.288423 0
M  V30 47 H 6.066724 7.900014 -16.584286 0
M  V30 48 H 10.494293 7.099666 -11.775195 0
M  V30 49 H 6.006361 4.093263 -12.917820 0
M  V30 50 H 7.900469 5.385454 -18.404140 0
M  V30 51 H 6.380763 4.497899 -18.502463 0
M  V30 52 H 6.081907 7.822595 -23.708630 0
M  V30 53 H 5.014678 6.421189 -23.487263 0
M  V30 54 H 7.012473 7.363872 -19.191532 0
M  V30 55 H 4.181805 6.520612 -18.507757 0
M  V30 56 H 4.803016 8.157236 -18.625901 0
M  V30 57 H 9.114979 6.151500 -13.576755 0
M  V30 END ATOM
M  V30 BEGIN BOND
M  V30 1 1 4 1
M  V30 2 1 7 3
M  V30 3 1 10 2 CFG=1
M  V30 4 1 12 4
M  V30 5 1 13 12
M  V30 6 1 14 10
M  V30 7 2 15 3
M  V30 8 1 16 1
M  V30 9 1 16 15
M  V30 10 1 17 12
M  V30 11 2 18 5
M  V30 12 2 20 8
M  V30 13 1 20 14
M  V30 14 1 21 19
M  V30 15 2 22 16
M  V30 16 1 23 7
M  V30 17 1 23 18
M  V30 18 1 24 19
M  V30 19 1 25 20
M  V30 20 2 26 6
M  V30 21 1 26 18
M  V30 22 1 26 19
M  V30 23 1 27 10
M  V30 24 1 27 24
M  V30 25 1 28 21
M  V30 26 1 28 27
M  V30 27 1 29 6
M  V30 28 1 29 23
M  V30 29 2 30 4
M  V30 30 1 31 9
M  V30 31 1 31 10
M  V30 32 1 31 11 CFG=3
M  V30 33 1 31 25
M  V30 34 2 32 7
M  V30 35 1 32 22
M  V30 36 1 33 1
M  V30 37 1 34 2
M  V30 38 1 35 2
M  V30 39 1 36 2
M  V30 40 1 37 3
M  V30 41 1 38 6
M  V30 42 1 39 9
M  V30 43 1 40 9
M  V30 44 1 41 9
M  V30 45 1 42 12
M  V30 46 1 43 14
M  V30 47 1 44 14
M  V30 48 1 45 15
M  V30 49 1 46 21
M  V30 50 1 47 21
M  V30 51 1 48 22
M  V30 52 1 23 49 CFG=1
M  V30 53 1 50 24
M  V30 54 1 51 24
M  V30 55 1 52 25
M  V30 56 1 53 25
M  V30 57 1 27 54 CFG=3
M  V30 58 1 55 28
M  V30 59 1 56 28
M  V30 60 1 57 32
M  V30 END BOND
M  V30 END CTAB
M  END
>  <i_epik_Tot_Q>  (1) 
0

>  <i_epik_Tot_abs_Q>  (1) 
0

>  <i_i_glide_confnum>  (1) 
72

>  <i_i_glide_lignum>  (1) 
99

>  <i_i_glide_posenum>  (1) 
230

>  <i_i_glide_rotatable_bonds>  (1) 
6

>  <i_lp_mmshare_version>  (1) 
72125

>  <i_m_source_file_index>  (1) 
54

>  <i_f3d_flags>  (1) 
0

>  <num_sample>  (1) 
100

>  <b_lp_Chiralities_Consistent>  (1) 
1

>  <r_epik_Charging_Adjusted_Penalty>  (1) 
4.1888359508332041e-06

>  <r_epik_Ionization_Penalty>  (1) 
8.7681406238932585e-06

>  <r_epik_Ionization_Penalty_Charging>  (1) 
4.1888359508332041e-06

>  <r_epik_Ionization_Penalty_Neutral>  (1) 
4.5793046730600536e-06

>  <r_epik_State_Penalty>  (1) 
-0

>  <r_glide_ring_energy>  (1) 
0.96684297087673354

>  <r_i_docking_score>  (1) 
-5.3165860675308938

>  <r_i_glide_ecoul>  (1) 
-0.25973947817538778

>  <r_i_glide_eff_state_penalty>  (1) 
-0

>  <r_i_glide_einternal>  (1) 
0.53540038542466206

>  <r_i_glide_emodel>  (1) 
-51.367858949942338

>  <r_i_glide_emodel_strain>  (1) 
0.15108637692559057

>  <r_i_glide_energy>  (1) 
-39.127355206736041

>  <r_i_glide_erotb>  (1) 
0.46348911734649417

>  <r_i_glide_esite>  (1) 
-0.064731030945891069

>  <r_i_glide_evdw>  (1) 
-38.867615728560651

>  <r_i_glide_gscore>  (1) 
-5.3165860675308938

>  <r_i_glide_gscore_strain>  (1) 
0

>  <r_i_glide_hbond>  (1) 
0

>  <r_i_glide_ligand_efficiency>  (1) 
-0.16614331461034043

>  <r_i_glide_ligand_efficiency_ln>  (1) 
-1.1905285451828307

>  <r_i_glide_ligand_efficiency_sa>  (1) 
-0.52747214477987592

>  <r_i_glide_lipo>  (1) 
-1.8291597991887416

>  <r_i_glide_metal>  (1) 
-0

>  <r_i_glide_rewards>  (1) 
-1.9038426465884144

>  <r_lp_Energy>  (1) 
16.010603

>  <r_lp_tautomer_probability>  (1) 
1

>  <s_epik_Chemistry_Notes>  (1) 
This compound has an imine and may undergo hydrolysis.

>  <s_epik_cmdline>  (1) 
J2VwaWtfcHl0aG9uJywgJy1waHQnLCAnMS4wJywgJy1waCcsICc3LjQnLCAnLXRuJywgJzgnLCAnLW1hJywgJzUwMCcsICctaW1hZScsICc8aW5maWxlLm1hZT4nLCAnLW9tYWUnLCAnPG91dGZpbGUubWFlPic=

>  <s_epik_input>  (1) 
RltDSF0oRilDKD1PKVtOSF1jKFtjSF1bY0hdMSlbY0hdW2NIXWMxW0NAQEhdKEMyPU8pU1tDSF09QzJOM1tDSDJdW0NIMl1bQ0BASF0oW0NIMl0zKVtDQF00KFtDSDNdKVtDSDJdQyg9TylbQ0gyXVtDQF00KEYpW0NIM10=

>  <s_glide_docking_method>  (1) 
confgen

>  <s_i_glide_gridfile>  (1) 
gpcr_drd2_6luq_protein_autoprepared_prepared

>  <s_lp_Force_Field>  (1) 
S-OPLS

>  <s_lp_Variant>  (1) 
DiffSBDD_53_num_sample_100-1

>  <s_m_source_file>  (1) 
generated__ligand_DiffSBDD_2026-05-06_prepared.sdf

>  <GenAI_Model>  (1) 
DiffSBDD

>  <Protein>  (1) 
generic_title2

$$$$
DiffSBDD_9_num_sample_100
     RDKit          3D

  0  0  0  0  0  0  0  0  0  0999 V3000
M  V30 BEGIN CTAB
M  V30 COUNTS 39 39 0 0 1
M  V30 BEGIN ATOM
M  V30 1 C 10.108860 7.189559 -8.872022 0
M  V30 2 O 9.034932 8.150210 -6.346283 0
M  V30 3 O 11.036488 9.692035 -6.115880 0
M  V30 4 C 7.039016 6.199506 -13.919427 0
M  V30 5 C 13.034901 8.169297 -9.625506 0
M  V30 6 C 12.634922 6.169238 -1.965411 0
M  V30 7 C 11.597579 6.922075 -4.039014 0
M  V30 8 S 10.487153 8.345273 -6.340562 0
M  V30 9 C 6.802744 5.024166 -14.655153 0
M  V30 10 C 12.281698 8.618021 -8.381806 0
M  V30 11 C 11.106871 7.407298 -5.043575 0
M  V30 12 C 8.551733 5.351183 -9.803920 0
M  V30 13 C 7.841339 6.158894 -12.762193 0
M  V30 14 C 9.287660 4.900948 -11.088855 0
M  V30 15 C 8.411043 4.937778 -12.337949 0
M  V30 16 C 9.459863 5.806522 -8.635380 0
M  V30 17 F 6.495915 7.369396 -14.325601 0
M  V30 18 C 12.108152 6.544401 -2.998782 0
M  V30 19 C 7.367612 3.804845 -14.236464 0
M  V30 20 F 8.715399 2.583057 -12.691245 0
M  V30 21 C 8.171955 3.757898 -13.081839 0
M  V30 22 O 14.231985 7.840070 -9.489902 0
M  V30 23 O 12.403682 8.169266 -10.691666 0 CHG=-1
M  V30 24 C 11.230143 7.600848 -7.865700 0 CFG=2
M  V30 25 H 9.339174 7.961551 -8.901412 0
M  V30 26 H 10.488057 7.160328 -9.881959 0
M  V30 27 H 13.096191 5.775314 -1.090690 0
M  V30 28 H 6.188445 5.058282 -15.542661 0
M  V30 29 H 11.789228 9.560109 -8.625718 0
M  V30 30 H 13.010875 8.837607 -7.600547 0
M  V30 31 H 7.894790 4.550526 -9.467970 0
M  V30 32 H 7.885567 6.169056 -10.052958 0
M  V30 33 H 8.021766 7.064365 -12.200077 0
M  V30 34 H 10.133242 5.552546 -11.304393 0
M  V30 35 H 9.709846 3.907898 -10.937697 0
M  V30 36 H 10.221907 5.047602 -8.465058 0
M  V30 37 H 8.867737 5.849009 -7.720727 0
M  V30 38 H 7.185750 2.903931 -14.802285 0
M  V30 39 H 11.764649 6.700995 -7.564208 0
M  V30 END ATOM
M  V30 BEGIN BOND
M  V30 1 2 8 2
M  V30 2 2 8 3
M  V30 3 1 9 4
M  V30 4 1 10 5
M  V30 5 3 11 7
M  V30 6 1 11 8
M  V30 7 2 13 4
M  V30 8 1 14 12
M  V30 9 1 15 13
M  V30 10 1 15 14
M  V30 11 1 16 1
M  V30 12 1 16 12
M  V30 13 1 17 4
M  V30 14 3 18 6
M  V30 15 1 18 7
M  V30 16 2 19 9
M  V30 17 2 21 15
M  V30 18 1 21 19
M  V30 19 1 21 20
M  V30 20 2 22 5
M  V30 21 1 23 5
M  V30 22 1 24 1
M  V30 23 1 24 8
M  V30 24 1 24 10
M  V30 25 1 25 1
M  V30 26 1 26 1
M  V30 27 1 27 6
M  V30 28 1 28 9
M  V30 29 1 29 10
M  V30 30 1 30 10
M  V30 31 1 31 12
M  V30 32 1 32 12
M  V30 33 1 33 13
M  V30 34 1 34 14
M  V30 35 1 35 14
M  V30 36 1 36 16
M  V30 37 1 37 16
M  V30 38 1 38 19
M  V30 39 1 24 39 CFG=1
M  V30 END BOND
M  V30 END CTAB
M  END
>  <i_epik_Tot_Q>  (1) 
-1

>  <i_epik_Tot_abs_Q>  (1) 
1

>  <i_i_glide_confnum>  (1) 
404

>  <i_i_glide_lignum>  (1) 
15

>  <i_i_glide_posenum>  (1) 
245

>  <i_i_glide_rotatable_bonds>  (1) 
10

>  <i_lp_mmshare_version>  (1) 
72125

>  <i_m_source_file_index>  (1) 
10

>  <i_f3d_flags>  (1) 
0

>  <num_sample>  (1) 
100

>  <b_lp_Chiralities_Consistent>  (1) 
1

>  <r_epik_Charging_Adjusted_Penalty>  (1) 
0.0001073779662715613

>  <r_epik_Ionization_Penalty>  (1) 
0.0001073779662715613

>  <r_epik_Ionization_Penalty_Charging>  (1) 
0.0001073779662715613

>  <r_epik_Ionization_Penalty_Neutral>  (1) 
0

>  <r_epik_State_Penalty>  (1) 
-0

>  <r_glide_ring_energy>  (1) 
0

>  <r_i_docking_score>  (1) 
-5.3164719301760588

>  <r_i_glide_ecoul>  (1) 
-2.0378057725699246

>  <r_i_glide_eff_state_penalty>  (1) 
-0

>  <r_i_glide_einternal>  (1) 
4.8550315462000464

>  <r_i_glide_emodel>  (1) 
-42.331834475716008

>  <r_i_glide_emodel_strain>  (1) 
1.4096655520278278

>  <r_i_glide_energy>  (1) 
-36.829433516392285

>  <r_i_glide_erotb>  (1) 
1.2234298802473262

>  <r_i_glide_esite>  (1) 
-0.070049818032394892

>  <r_i_glide_evdw>  (1) 
-34.79162774382236

>  <r_i_glide_gscore>  (1) 
-5.3164719301760588

>  <r_i_glide_gscore_strain>  (1) 
0

>  <r_i_glide_hbond>  (1) 
0

>  <r_i_glide_ligand_efficiency>  (1) 
-0.22151966375733578

>  <r_i_glide_ligand_efficiency_ln>  (1) 
-1.2724756898915557

>  <r_i_glide_ligand_efficiency_sa>  (1) 
-0.63897327973731821

>  <r_i_glide_lipo>  (1) 
-2.1416253202850317

>  <r_i_glide_metal>  (1) 
-0

>  <r_i_glide_rewards>  (1) 
-2.2829744190293524

>  <r_lp_Energy>  (1) 
9.3765809999999998

>  <r_lp_tautomer_probability>  (1) 
1

>  <s_epik_cmdline>  (1) 
J2VwaWtfcHl0aG9uJywgJy1waHQnLCAnMS4wJywgJy1waCcsICc3LjQnLCAnLXRuJywgJzgnLCAnLW1hJywgJzUwMCcsICctaW1hZScsICc8aW5maWxlLm1hZT4nLCAnLW9tYWUnLCAnPG91dGZpbGUubWFlPic=

>  <s_epik_input>  (1) 
W0NIXSNDQyNDUyg9TykoPU8pW0NASF0oW0NIMl1DKD1PKVtPSF0pW0NIMl1bQ0gyXVtDSDJdW0NIMl1jKFtjSF0xKWMoRilbY0hdW2NIXWMxRg==

>  <s_glide_docking_method>  (1) 
confgen

>  <s_i_glide_gridfile>  (1) 
gpcr_drd2_6luq_protein_autoprepared_prepared

>  <s_lp_Force_Field>  (1) 
S-OPLS

>  <s_lp_Variant>  (1) 
DiffSBDD_9_num_sample_100-1

>  <s_m_source_file>  (1) 
generated__ligand_DiffSBDD_2026-05-06_prepared.sdf

>  <GenAI_Model>  (1) 
DiffSBDD

>  <Protein>  (1) 
generic_title2

$$$$
DiffSBDD_78_num_sample_100
     RDKit          3D

  0  0  0  0  0  0  0  0  0  0999 V3000
M  V30 BEGIN CTAB
M  V30 COUNTS 75 84 0 0 1
M  V30 BEGIN ATOM
M  V30 1 C 7.629632 5.037677 -11.635386 0
M  V30 2 C 10.139719 8.349209 -9.212100 0 CFG=1
M  V30 3 C 7.245083 4.688595 -14.130717 0
M  V30 4 C 10.397957 6.873475 -11.410666 0
M  V30 5 C 8.621703 5.889997 -7.173737 0
M  V30 6 C 10.246141 8.876943 -6.868190 0 CFG=2
M  V30 7 C 7.522952 -2.962429 -19.727824 0
M  V30 8 O 8.203932 -3.849179 -17.492073 0
M  V30 9 C 6.582857 -2.379804 -18.687688 0 CFG=1
M  V30 10 C 8.092386 1.734841 -16.519566 0 CFG=2
M  V30 11 C 7.435118 0.406306 -16.616500 0
M  V30 12 C 9.331719 7.213718 -7.140972 0 CFG=2
M  V30 13 C 8.010947 -2.722212 -18.322256 0 CFG=2
M  V30 14 C 7.910315 5.553859 -13.057428 0
M  V30 15 C 8.912980 8.457343 -6.513436 0 CFG=1
M  V30 16 C 10.343835 7.064977 -9.923703 0 CFG=1
M  V30 17 C 8.839255 4.802359 -16.194158 0
M  V30 18 C 8.568658 -1.432054 -17.843514 0
M  V30 19 N 8.233352 5.878189 -10.583017 0 CHG=1
M  V30 20 O 9.706684 -1.324028 -17.384305 0
M  V30 21 C 9.235098 8.490701 -7.981032 0 CFG=1
M  V30 22 C 6.367827 -0.862355 -18.599220 0
M  V30 23 C 11.095427 6.992228 -5.249343 0
M  V30 24 C 7.035117 2.830619 -16.608316 0
M  V30 25 C 11.806179 7.025126 -7.717441 0
M  V30 26 C 7.632625 -0.243673 -17.947223 0 CFG=1
M  V30 27 C 6.726775 -0.144417 -15.611880 0
M  V30 28 C 5.396297 -3.181852 -18.178114 0
M  V30 29 C 11.478243 7.522185 -9.105295 0 CFG=2
M  V30 30 C 7.531769 4.265192 -16.752820 0 CFG=1
M  V30 31 O 8.912086 1.734549 -17.680103 0
M  V30 32 C 7.545715 5.180350 -15.536559 0 CFG=1
M  V30 33 C 10.786622 7.434051 -6.682444 0 CFG=2
M  V30 34 O 8.226518 0.812863 -18.694392 0
M  V30 35 C 9.697688 5.839811 -10.503359 0 CFG=1
M  V30 36 H 6.551868 5.016836 -11.465845 0
M  V30 37 H 7.985369 4.012524 -11.521323 0
M  V30 38 H 10.228031 9.251184 -9.805045 0
M  V30 39 H 6.163754 4.675136 -13.993179 0
M  V30 40 H 7.596911 3.662238 -14.019047 0
M  V30 41 H 11.344132 6.582066 -11.861725 0
M  V30 42 H 9.787656 7.544645 -12.014766 0
M  V30 43 H 7.845966 5.868636 -7.935314 0
M  V30 44 H 9.324308 5.078929 -7.369046 0
M  V30 45 H 8.143824 5.770396 -6.205832 0
M  V30 46 H 10.721679 9.823098 -6.634049 0
M  V30 47 H 7.889997 -2.304754 -20.513709 0
M  V30 48 H 7.365102 -3.994149 -20.032763 0
M  V30 49 H 7.949351 -3.612823 -16.601475 0
M  V30 50 H 8.672865 1.810784 -15.604611 0
M  V30 51 H 8.983066 5.558290 -13.250124 0
M  V30 52 H 7.565623 6.583907 -13.154431 0
M  V30 53 H 7.962302 8.968665 -6.487378 0
M  V30 54 H 9.498307 4.151367 -15.632407 0
M  V30 55 H 9.346329 5.574454 -16.769326 0
M  V30 56 H 7.901507 6.837835 -10.626986 0
M  V30 57 H 5.463352 -0.631524 -18.034072 0
M  V30 58 H 6.217658 -0.467746 -19.604605 0
M  V30 59 H 10.201105 6.953412 -4.634886 0
M  V30 60 H 11.524609 5.989349 -5.216385 0
M  V30 61 H 11.803838 7.669332 -4.774177 0
M  V30 62 H 6.406150 2.607747 -17.472723 0
M  V30 63 H 6.394875 2.746889 -15.732896 0
M  V30 64 H 11.834837 5.945795 -7.690942 0
M  V30 65 H 12.802603 7.391371 -7.492255 0
M  V30 66 H 6.610004 0.366514 -14.666441 0
M  V30 67 H 6.257151 -1.110485 -15.725073 0
M  V30 68 H 4.499809 -2.940365 -18.749809 0
M  V30 69 H 5.579506 -4.252764 -18.268102 0
M  V30 70 H 5.206022 -2.961061 -17.127016 0
M  V30 71 H 12.337984 7.885530 -9.660874 0
M  V30 72 H 7.217042 4.726735 -17.687323 0
M  V30 73 H 7.197187 6.194477 -15.718922 0
M  V30 74 H 10.092599 4.854136 -10.273066 0
M  V30 75 H 7.885446 5.543525 -9.696756 0
M  V30 END ATOM
M  V30 BEGIN BOND
M  V30 1 1 9 7
M  V30 2 1 11 10
M  V30 3 1 12 5 CFG=3
M  V30 4 1 13 7
M  V30 5 1 13 8 CFG=1
M  V30 6 1 13 9
M  V30 7 1 14 1
M  V30 8 1 14 3
M  V30 9 1 15 6
M  V30 10 1 15 12
M  V30 11 1 16 2
M  V30 12 1 16 4 CFG=3
M  V30 13 1 18 13
M  V30 14 1 19 1
M  V30 15 2 20 18
M  V30 16 1 21 2
M  V30 17 1 21 6
M  V30 18 1 21 12 CFG=1
M  V30 19 1 21 15
M  V30 20 1 22 9
M  V30 21 1 24 10
M  V30 22 1 26 11
M  V30 23 1 26 18
M  V30 24 1 26 22
M  V30 25 2 27 11
M  V30 26 1 9 28 CFG=1
M  V30 27 1 29 2
M  V30 28 1 29 16
M  V30 29 1 29 25
M  V30 30 1 30 17
M  V30 31 1 30 24
M  V30 32 1 31 10
M  V30 33 1 32 3
M  V30 34 1 32 17
M  V30 35 1 32 30
M  V30 36 1 33 6
M  V30 37 1 33 12
M  V30 38 1 33 23 CFG=1
M  V30 39 1 33 25
M  V30 40 1 26 34 CFG=3
M  V30 41 1 34 31
M  V30 42 1 35 4
M  V30 43 1 35 16
M  V30 44 1 35 19
M  V30 45 1 36 1
M  V30 46 1 37 1
M  V30 47 1 2 38 CFG=3
M  V30 48 1 39 3
M  V30 49 1 40 3
M  V30 50 1 41 4
M  V30 51 1 42 4
M  V30 52 1 43 5
M  V30 53 1 44 5
M  V30 54 1 45 5
M  V30 55 1 6 46 CFG=3
M  V30 56 1 47 7
M  V30 57 1 48 7
M  V30 58 1 49 8
M  V30 59 1 10 50 CFG=1
M  V30 60 1 51 14
M  V30 61 1 52 14
M  V30 62 1 15 53 CFG=3
M  V30 63 1 54 17
M  V30 64 1 55 17
M  V30 65 1 56 19
M  V30 66 1 57 22
M  V30 67 1 58 22
M  V30 68 1 59 23
M  V30 69 1 60 23
M  V30 70 1 61 23
M  V30 71 1 62 24
M  V30 72 1 63 24
M  V30 73 1 64 25
M  V30 74 1 65 25
M  V30 75 1 66 27
M  V30 76 1 67 27
M  V30 77 1 68 28
M  V30 78 1 69 28
M  V30 79 1 70 28
M  V30 80 1 29 71 CFG=3
M  V30 81 1 30 72 CFG=3
M  V30 82 1 32 73 CFG=3
M  V30 83 1 35 74 CFG=1
M  V30 84 1 75 19
M  V30 END BOND
M  V30 END CTAB
M  END
>  <i_epik_Tot_Q>  (1) 
1

>  <i_epik_Tot_abs_Q>  (1) 
1

>  <i_i_glide_confnum>  (1) 
208

>  <i_i_glide_lignum>  (1) 
159

>  <i_i_glide_posenum>  (1) 
357

>  <i_i_glide_rotatable_bonds>  (1) 
8

>  <i_lp_mmshare_version>  (1) 
72125

>  <i_m_source_file_index>  (1) 
79

>  <i_f3d_flags>  (1) 
2

>  <num_sample>  (1) 
100

>  <b_lp_Chiralities_Consistent>  (1) 
0

>  <r_epik_Charging_Adjusted_Penalty>  (1) 
0.013403952672872374

>  <r_epik_Ionization_Penalty>  (1) 
0.0067020061750241401

>  <r_epik_Ionization_Penalty_Charging>  (1) 
0.0067019763364361854

>  <r_epik_Ionization_Penalty_Neutral>  (1) 
2.9838587954806154e-08

>  <r_epik_State_Penalty>  (1) 
0.0067019763364361889

>  <r_glide_ring_energy>  (1) 
0.40288230367583672

>  <r_i_docking_score>  (1) 
-5.3140469539020883

>  <r_i_glide_ecoul>  (1) 
-9.964382606868984

>  <r_i_glide_eff_state_penalty>  (1) 
0.0067019763364361889

>  <r_i_glide_einternal>  (1) 
3.027553007474479

>  <r_i_glide_emodel>  (1) 
-33.446548371487083

>  <r_i_glide_emodel_strain>  (1) 
1.9123505574228261

>  <r_i_glide_energy>  (1) 
-33.720275254603848

>  <r_i_glide_erotb>  (1) 
0.61918083284399961

>  <r_i_glide_esite>  (1) 
-0.10922460854260536

>  <r_i_glide_evdw>  (1) 
-23.755892647734868

>  <r_i_glide_gscore>  (1) 
-5.3207489302385245

>  <r_i_glide_gscore_strain>  (1) 
0

>  <r_i_glide_hbond>  (1) 
-0.44547221763421613

>  <r_i_glide_ligand_efficiency>  (1) 
-0.1518299129686311

>  <r_i_glide_ligand_efficiency_ln>  (1) 
-1.1665512452992695

>  <r_i_glide_ligand_efficiency_sa>  (1) 
-0.49664571319055489

>  <r_i_glide_lipo>  (1) 
-1.6572645498522467

>  <r_i_glide_metal>  (1) 
-0

>  <r_i_glide_rewards>  (1) 
-1.0455163636363656

>  <r_lp_Energy>  (1) 
113.50332999999999

>  <s_epik_cmdline>  (1) 
J2VwaWtfcHl0aG9uJywgJy1waHQnLCAnMS4wJywgJy1waCcsICc3LjQnLCAnLXRuJywgJzgnLCAnLW1hJywgJzUwMCcsICctaW1hZScsICc8aW5maWxlLm1hZT4nLCAnLW9tYWUnLCAnPG91dGZpbGUubWFlPic=

>  <s_epik_input>  (1) 
W0NASF0xMltDSDJdQzMoW0NIM10pQzQoW0NIM10pW0NIXTVbQ0hdM0M0NVtDQEhdMVtDQF0yNltDSDJdW0NAQEhdNltOSF1bQ0gyXVtDSDJdW0NIMl1bQ0BIXTdbQ0gyXVtDQEhdN1tDSDJdW0NASF0oT084KUMoPVtDSDJdKVtDQF04OUMoPU8pW0NAXTEoW09IXSlbQ0BdKFtDSDJdMSkoW0NIMl05KVtDSDNd

>  <s_glide_docking_method>  (1) 
confgen

>  <s_i_glide_gridfile>  (1) 
gpcr_drd2_6luq_protein_autoprepared_prepared

>  <s_lp_Force_Field>  (1) 
S-OPLS

>  <s_lp_Variant>  (1) 
DiffSBDD_78_num_sample_100-1

>  <s_m_source_file>  (1) 
generated__ligand_DiffSBDD_2026-05-06_prepared.sdf

>  <GenAI_Model>  (1) 
DiffSBDD

>  <Protein>  (1) 
generic_title2

$$$$
DiffSBDD_44_num_sample_100
     RDKit          3D

  0  0  0  0  0  0  0  0  0  0999 V3000
M  V30 BEGIN CTAB
M  V30 COUNTS 56 58 0 0 1
M  V30 BEGIN ATOM
M  V30 1 C 5.512961 3.839187 -13.091062 0
M  V30 2 C 6.778343 3.076519 -13.558577 0 CFG=1
M  V30 3 C 12.403489 9.369301 -4.857615 0
M  V30 4 C 11.834840 7.210717 -3.156324 0
M  V30 5 C 11.365978 7.187247 -4.490605 0
M  V30 6 C 8.870672 6.048929 -10.245833 0
M  V30 7 C 6.530444 1.567977 -13.584213 0
M  V30 8 N 7.042069 3.303935 -15.013505 0 CFG=2 CHG=1
M  V30 9 C 10.170186 6.571706 -9.635277 0
M  V30 10 C 10.252065 7.546549 -7.271766 0
M  V30 11 O 9.587716 6.710587 -6.664764 0
M  V30 12 C 12.576124 8.294184 -2.690194 0
M  V30 13 N 11.549958 6.169300 -2.298081 0
M  V30 14 C 6.915253 0.867563 -14.861346 0
M  V30 15 N 11.214919 8.307558 -6.741722 0
M  V30 16 C 9.169430 4.843289 -11.131924 0
M  V30 17 O 8.978266 2.570122 -12.691663 0
M  V30 18 C 11.135345 8.880604 -9.015687 0
M  V30 19 C 7.500100 2.039358 -15.656307 0
M  V30 20 N 8.035866 4.478454 -11.960945 0
M  V30 21 C 7.847217 4.494826 -15.391220 0
M  V30 22 C 10.022246 7.817173 -8.748991 0 CFG=1
M  V30 23 C 11.834861 9.214606 -7.672470 0
M  V30 24 C 11.642513 8.285988 -5.351460 0
M  V30 25 C 8.033830 3.356034 -12.691660 0
M  V30 26 C 12.860210 9.361662 -3.536251 0
M  V30 27 O 6.048630 0.964444 -12.629393 0
M  V30 28 H 5.415587 3.821534 -12.004420 0
M  V30 29 H 5.531519 4.884137 -13.402846 0
M  V30 30 H 4.598541 3.399788 -13.491620 0
M  V30 31 H 12.642775 10.203883 -5.493224 0
M  V30 32 H 10.808632 6.335847 -4.836026 0
M  V30 33 H 8.162758 5.770093 -9.462472 0
M  V30 34 H 8.410142 6.837432 -10.842187 0
M  V30 35 H 10.839530 6.800204 -10.463737 0
M  V30 36 H 10.634849 5.768802 -9.066613 0
M  V30 37 H 12.932607 8.307015 -1.670880 0
M  V30 38 H 11.999656 6.104613 -1.397781 0
M  V30 39 H 11.130858 5.314071 -2.646059 0
M  V30 40 H 7.635235 0.067473 -14.686635 0
M  V30 41 H 6.022509 0.457201 -15.333804 0
M  V30 42 H 10.010077 5.057803 -11.794829 0
M  V30 43 H 9.465265 3.998338 -10.506776 0
M  V30 44 H 11.893891 8.512099 -9.707284 0
M  V30 45 H 10.724194 9.769289 -9.491660 0
M  V30 46 H 8.589567 1.981130 -15.629767 0
M  V30 47 H 7.194994 2.007144 -16.702887 0
M  V30 48 H 7.237472 5.096730 -11.981089 0
M  V30 49 H 8.896833 4.386269 -15.111096 0
M  V30 50 H 7.811403 4.641861 -16.470955 0
M  V30 51 H 7.459203 5.398833 -14.920227 0
M  V30 52 H 9.041061 8.278501 -8.867786 0
M  V30 53 H 11.729545 10.246604 -7.369866 0
M  V30 54 H 12.897691 8.972235 -7.732989 0
M  V30 55 H 13.434837 10.169310 -3.172103 0
M  V30 56 H 6.123660 3.462364 -15.401779 0
M  V30 END ATOM
M  V30 BEGIN BOND
M  V30 1 1 2 1 CFG=1
M  V30 2 2 5 4
M  V30 3 1 7 2
M  V30 4 1 8 2
M  V30 5 1 9 6
M  V30 6 2 11 10
M  V30 7 1 12 4
M  V30 8 1 13 4
M  V30 9 1 14 7
M  V30 10 1 15 10
M  V30 11 1 16 6
M  V30 12 1 19 8
M  V30 13 1 19 14
M  V30 14 1 20 16
M  V30 15 1 21 8
M  V30 16 1 22 9
M  V30 17 1 22 10
M  V30 18 1 22 18
M  V30 19 1 23 15
M  V30 20 1 23 18
M  V30 21 2 24 3
M  V30 22 1 24 5
M  V30 23 1 24 15
M  V30 24 1 25 2
M  V30 25 2 25 17
M  V30 26 1 25 20
M  V30 27 1 26 3
M  V30 28 2 26 12
M  V30 29 2 27 7
M  V30 30 1 28 1
M  V30 31 1 29 1
M  V30 32 1 30 1
M  V30 33 1 31 3
M  V30 34 1 32 5
M  V30 35 1 33 6
M  V30 36 1 34 6
M  V30 37 1 35 9
M  V30 38 1 36 9
M  V30 39 1 37 12
M  V30 40 1 38 13
M  V30 41 1 39 13
M  V30 42 1 40 14
M  V30 43 1 41 14
M  V30 44 1 42 16
M  V30 45 1 43 16
M  V30 46 1 44 18
M  V30 47 1 45 18
M  V30 48 1 46 19
M  V30 49 1 47 19
M  V30 50 1 48 20
M  V30 51 1 49 21
M  V30 52 1 50 21
M  V30 53 1 51 21
M  V30 54 1 22 52 CFG=1
M  V30 55 1 53 23
M  V30 56 1 54 23
M  V30 57 1 55 26
M  V30 58 1 8 56 CFG=3
M  V30 END BOND
M  V30 END CTAB
M  END
>  <i_epik_Tot_Q>  (1) 
1

>  <i_epik_Tot_abs_Q>  (1) 
1

>  <i_i_glide_confnum>  (1) 
13

>  <i_i_glide_lignum>  (1) 
78

>  <i_i_glide_posenum>  (1) 
361

>  <i_i_glide_rotatable_bonds>  (1) 
7

>  <i_lp_mmshare_version>  (1) 
72125

>  <i_m_source_file_index>  (1) 
45

>  <i_f3d_flags>  (1) 
0

>  <num_sample>  (1) 
100

>  <b_lp_Chiralities_Consistent>  (1) 
1

>  <r_epik_Charging_Adjusted_Penalty>  (1) 
0.87787264938008924

>  <r_epik_Ionization_Penalty>  (1) 
0.44040452980928141

>  <r_epik_Ionization_Penalty_Charging>  (1) 
0.43893632469004462

>  <r_epik_Ionization_Penalty_Neutral>  (1) 
0.0014682051192367804

>  <r_epik_State_Penalty>  (1) 
0.43893632469004457

>  <r_glide_ring_energy>  (1) 
0

>  <r_i_docking_score>  (1) 
-5.3132573633693765

>  <r_i_glide_ecoul>  (1) 
-0.75939392674912432

>  <r_i_glide_eff_state_penalty>  (1) 
0.43893632469004457

>  <r_i_glide_einternal>  (1) 
7.8587538118593621

>  <r_i_glide_emodel>  (1) 
-37.32996642926414

>  <r_i_glide_emodel_strain>  (1) 
0.55933538310833342

>  <r_i_glide_energy>  (1) 
-30.558931810523585

>  <r_i_glide_erotb>  (1) 
0.96983297192060391

>  <r_i_glide_esite>  (1) 
-0.017047864879823765

>  <r_i_glide_evdw>  (1) 
-29.799537883774462

>  <r_i_glide_gscore>  (1) 
-5.7521936880594211

>  <r_i_glide_gscore_strain>  (1) 
0

>  <r_i_glide_hbond>  (1) 
0

>  <r_i_glide_ligand_efficiency>  (1) 
-0.19678730975442135

>  <r_i_glide_ligand_efficiency_ln>  (1) 
-1.2368387182987646

>  <r_i_glide_ligand_efficiency_sa>  (1) 
-0.59036192926326414

>  <r_i_glide_lipo>  (1) 
-2.8773426023339224

>  <r_i_glide_metal>  (1) 
-0

>  <r_i_glide_rewards>  (1) 
-2.2237502095651878

>  <r_lp_Energy>  (1) 
34.183026999999996

>  <r_lp_tautomer_probability>  (1) 
0.99995000000000001

>  <s_epik_cmdline>  (1) 
J2VwaWtfcHl0aG9uJywgJy1waHQnLCAnMS4wJywgJy1waCcsICc3LjQnLCAnLXRuJywgJzgnLCAnLW1hJywgJzUwMCcsICctaW1hZScsICc8aW5maWxlLm1hZT4nLCAnLW9tYWUnLCAnPG91dGZpbGUubWFlPic=

>  <s_epik_input>  (1) 
W0NIM11OMVtDSDJdW0NIMl1DKD1PKVtDQEBdMShbQ0gzXSlDKD1PKVtOSF1bQ0gyXVtDSDJdW0NIMl1bQ0BASF0yW0NIMl1bQ0gyXU4oQzI9TyljKFtjSF1bY0hdW2NIXTMpW2NIXWMzW05IMl0=

>  <s_glide_docking_method>  (1) 
confgen

>  <s_i_glide_gridfile>  (1) 
gpcr_drd2_6luq_protein_autoprepared_prepared

>  <s_lp_Force_Field>  (1) 
S-OPLS

>  <s_lp_Variant>  (1) 
DiffSBDD_44_num_sample_100-3

>  <s_m_source_file>  (1) 
generated__ligand_DiffSBDD_2026-05-06_prepared.sdf

>  <GenAI_Model>  (1) 
DiffSBDD

>  <Protein>  (1) 
generic_title2

$$$$
DiffSBDD_25_num_sample_100
     RDKit          3D

  0  0  0  0  0  0  0  0  0  0999 V3000
M  V30 BEGIN CTAB
M  V30 COUNTS 66 69 0 0 1
M  V30 BEGIN ATOM
M  V30 1 C 5.363092 5.976852 -19.536363 0
M  V30 2 C 9.482478 6.817939 -6.947033 0
M  V30 3 C 8.540665 5.468961 -9.028565 0
M  V30 4 C 7.214678 4.439998 -13.662270 0 CFG=2
M  V30 5 C 11.429062 9.543596 -8.806482 0
M  V30 6 O 12.290297 7.690637 -7.704862 0
M  V30 7 C 11.982285 7.369960 -9.040572 0 CFG=1
M  V30 8 C 11.919058 9.015689 -7.446598 0 CFG=2
M  V30 9 F 8.338508 6.355159 -6.449715 0
M  V30 10 C 10.910626 8.997823 -6.282710 0
M  V30 11 C 5.722917 7.010994 -15.260099 0
M  V30 12 C 10.787530 6.399607 -9.091530 0
M  V30 13 F 10.453140 6.106037 -6.373096 0
M  V30 14 C 7.480700 6.772733 -12.346430 0 CFG=1
M  V30 15 N 4.969595 7.534464 -16.293242 0
M  V30 16 C 9.420685 6.660517 -8.493028 0 CFG=2
M  V30 17 O 5.434831 5.628983 -12.495904 0
M  V30 18 C 8.040969 4.027838 -16.087268 0
M  V30 19 C 8.595380 6.553964 -11.367562 0
M  V30 20 F 7.880283 7.369689 -13.455774 0
M  V30 21 C 7.522507 5.073940 -15.075636 0 CFG=1
M  V30 22 C 7.128287 4.743213 -11.056024 0
M  V30 23 C 5.325508 6.786931 -17.333715 0
M  V30 24 C 6.245083 3.231626 -13.786147 0
M  V30 25 C 11.909221 8.628518 -9.848839 0
M  V30 26 O 6.261129 5.826790 -17.065348 0
M  V30 27 O 6.330408 2.344270 -12.692164 0
M  V30 28 C 9.544389 8.290943 -6.476721 0
M  V30 29 N 7.897430 5.769295 -10.334234 0 CFG=1 CHG=1
M  V30 30 C 6.496315 5.981646 -15.722021 0
M  V30 31 O 4.848413 6.898922 -18.587750 0
M  V30 32 C 6.813177 5.379613 -12.455125 0 CFG=1
M  V30 33 H 4.898218 6.164733 -20.504715 0
M  V30 34 H 6.442053 6.091775 -19.654786 0
M  V30 35 H 5.140702 4.946461 -19.252350 0
M  V30 36 H 7.716937 5.248755 -8.353022 0
M  V30 37 H 9.113285 4.546033 -9.102448 0
M  V30 38 H 8.177744 4.012197 -13.379007 0
M  V30 39 H 10.353914 9.369295 -8.846879 0
M  V30 40 H 11.655318 10.569113 -9.091682 0
M  V30 41 H 12.868017 6.969318 -9.496529 0
M  V30 42 H 12.818032 9.519419 -7.091792 0
M  V30 43 H 10.718769 10.028350 -5.980283 0
M  V30 44 H 11.405008 8.541971 -5.423759 0
M  V30 45 H 5.651181 7.423053 -14.267032 0
M  V30 46 H 11.034841 5.469638 -8.598351 0
M  V30 47 H 10.634843 6.169355 -10.130242 0
M  V30 48 H 6.795048 7.497517 -11.898771 0
M  V30 49 H 9.034859 7.594567 -8.884166 0
M  V30 50 H 5.179755 6.128619 -11.733693 0
M  V30 51 H 8.592540 4.506117 -16.897788 0
M  V30 52 H 8.706706 3.310057 -15.616468 0
M  V30 53 H 7.225390 3.465773 -16.543395 0
M  V30 54 H 8.981545 7.514440 -11.029256 0
M  V30 55 H 9.393823 5.977958 -11.837757 0
M  V30 56 H 8.405547 5.690513 -14.919400 0
M  V30 57 H 6.240327 4.452728 -10.490877 0
M  V30 58 H 7.761456 3.863208 -11.154798 0
M  V30 59 H 6.461415 2.622722 -14.659285 0
M  V30 60 H 5.218626 3.575874 -13.891628 0
M  V30 61 H 12.891844 8.947802 -10.204108 0
M  V30 62 H 11.227338 8.556524 -10.691648 0
M  V30 63 H 5.801454 1.581725 -12.880468 0
M  V30 64 H 8.877039 8.905802 -7.080987 0
M  V30 65 H 9.094130 8.279317 -5.492017 0
M  V30 66 H 7.216615 6.465294 -10.011416 0
M  V30 END ATOM
M  V30 BEGIN BOND
M  V30 1 1 7 6
M  V30 2 1 8 5
M  V30 3 1 8 6
M  V30 4 1 9 2
M  V30 5 1 10 8
M  V30 6 1 12 7
M  V30 7 1 13 2
M  V30 8 1 15 11
M  V30 9 1 16 2
M  V30 10 1 16 3
M  V30 11 1 16 12
M  V30 12 1 19 14
M  V30 13 1 20 14
M  V30 14 1 21 4
M  V30 15 1 21 18
M  V30 16 2 23 15
M  V30 17 1 24 4
M  V30 18 1 25 5
M  V30 19 1 25 7
M  V30 20 1 26 23
M  V30 21 1 27 24
M  V30 22 1 28 2
M  V30 23 1 28 10
M  V30 24 1 29 3
M  V30 25 1 29 19
M  V30 26 1 29 22
M  V30 27 2 30 11
M  V30 28 1 30 21
M  V30 29 1 30 26
M  V30 30 1 31 1
M  V30 31 1 31 23
M  V30 32 1 32 4
M  V30 33 1 32 14
M  V30 34 1 32 17 CFG=1
M  V30 35 1 32 22
M  V30 36 1 33 1
M  V30 37 1 34 1
M  V30 38 1 35 1
M  V30 39 1 36 3
M  V30 40 1 37 3
M  V30 41 1 4 38 CFG=1
M  V30 42 1 39 5
M  V30 43 1 40 5
M  V30 44 1 7 41 CFG=3
M  V30 45 1 8 42 CFG=1
M  V30 46 1 43 10
M  V30 47 1 44 10
M  V30 48 1 45 11
M  V30 49 1 46 12
M  V30 50 1 47 12
M  V30 51 1 14 48 CFG=1
M  V30 52 1 16 49 CFG=3
M  V30 53 1 50 17
M  V30 54 1 51 18
M  V30 55 1 52 18
M  V30 56 1 53 18
M  V30 57 1 54 19
M  V30 58 1 55 19
M  V30 59 1 21 56 CFG=1
M  V30 60 1 57 22
M  V30 61 1 58 22
M  V30 62 1 59 24
M  V30 63 1 60 24
M  V30 64 1 61 25
M  V30 65 1 62 25
M  V30 66 1 63 27
M  V30 67 1 64 28
M  V30 68 1 65 28
M  V30 69 1 29 66 CFG=1
M  V30 END BOND
M  V30 END CTAB
M  END
>  <i_epik_Tot_Q>  (1) 
1

>  <i_epik_Tot_abs_Q>  (1) 
1

>  <i_i_glide_confnum>  (1) 
211

>  <i_i_glide_lignum>  (1) 
39

>  <i_i_glide_posenum>  (1) 
247

>  <i_i_glide_rotatable_bonds>  (1) 
9

>  <i_lp_mmshare_version>  (1) 
72125

>  <i_m_source_file_index>  (1) 
26

>  <i_f3d_flags>  (1) 
0

>  <num_sample>  (1) 
100

>  <b_lp_Chiralities_Consistent>  (1) 
1

>  <r_epik_Charging_Adjusted_Penalty>  (1) 
0.21543991348680042

>  <r_epik_Ionization_Penalty>  (1) 
0.10772808098718631

>  <r_epik_Ionization_Penalty_Charging>  (1) 
0.10771995674340021

>  <r_epik_Ionization_Penalty_Neutral>  (1) 
8.124243786105112e-06

>  <r_epik_State_Penalty>  (1) 
0.10771995674340022

>  <r_glide_ring_energy>  (1) 
0

>  <r_i_docking_score>  (1) 
-5.3117828311857114

>  <r_i_glide_ecoul>  (1) 
-7.3735228393754042

>  <r_i_glide_eff_state_penalty>  (1) 
0.10771995674340022

>  <r_i_glide_einternal>  (1) 
12.581203930321635

>  <r_i_glide_emodel>  (1) 
-30.393571933369458

>  <r_i_glide_emodel_strain>  (1) 
3.6652617235325806

>  <r_i_glide_energy>  (1) 
-26.573154149977789

>  <r_i_glide_erotb>  (1) 
0.56277696399540145

>  <r_i_glide_esite>  (1) 
-0.18303709306723773

>  <r_i_glide_evdw>  (1) 
-19.199631310602385

>  <r_i_glide_gscore>  (1) 
-5.4195027879291118

>  <r_i_glide_gscore_strain>  (1) 
0

>  <r_i_glide_hbond>  (1) 
-0.19541208614006272

>  <r_i_glide_ligand_efficiency>  (1) 
-0.16599321347455348

>  <r_i_glide_ligand_efficiency_ln>  (1) 
-1.1894529696338665

>  <r_i_glide_ligand_efficiency_sa>  (1) 
-0.5269956033781763

>  <r_i_glide_lipo>  (1) 
-2.244038591448795

>  <r_i_glide_metal>  (1) 
-0

>  <r_i_glide_rewards>  (1) 
-1.2937819898319871

>  <r_lp_Energy>  (1) 
39.383341000000001

>  <s_epik_cmdline>  (1) 
J2VwaWtfcHl0aG9uJywgJy1waHQnLCAnMS4wJywgJy1waCcsICc3LjQnLCAnLXRuJywgJzgnLCAnLW1hJywgJzUwMCcsICctaW1hZScsICc8aW5maWxlLm1hZT4nLCAnLW9tYWUnLCAnPG91dGZpbGUubWFlPic=

>  <s_epik_input>  (1) 
W0NIM11PYzFuW2NIXWMobzEpW0NASF0oW0NIM10pW0NASF0oW0NIMl1bT0hdKVtDQF0yKFtPSF0pW0NASF0oRilbQ0gyXU4oW0NIMl0yKVtDSDJdW0NASF0oW0NIMl0zKUMoRikoRilbQ0gyXVtDSDJdW0NASF0oW0NIMl1bQ0gyXTQpT1tDQEBIXTM0

>  <s_glide_docking_method>  (1) 
confgen

>  <s_i_glide_gridfile>  (1) 
gpcr_drd2_6luq_protein_autoprepared_prepared

>  <s_lp_Force_Field>  (1) 
S-OPLS

>  <s_lp_Variant>  (1) 
DiffSBDD_25_num_sample_100-2

>  <s_m_source_file>  (1) 
generated__ligand_DiffSBDD_2026-05-06_prepared.sdf

>  <GenAI_Model>  (1) 
DiffSBDD

>  <Protein>  (1) 
generic_title2

$$$$
DiffSBDD_22_num_sample_100
     RDKit          3D

  0  0  0  0  0  0  0  0  0  0999 V3000
M  V30 BEGIN CTAB
M  V30 COUNTS 45 47 0 0 1
M  V30 BEGIN ATOM
M  V30 1 C 6.096615 6.970379 -14.176875 0
M  V30 2 C 6.842274 5.770309 -17.666089 0
M  V30 3 C 7.542303 5.959081 -12.486696 0
M  V30 4 C 11.431039 8.970955 -4.768025 0
M  V30 5 O 9.434812 4.169298 -11.182006 0
M  V30 6 C 4.997745 6.809791 -18.573825 0
M  V30 7 N 6.187526 6.306949 -16.571175 0
M  V30 8 C 9.053063 5.142902 -9.034082 0
M  V30 9 C 7.700216 5.238827 -14.830013 0
M  V30 10 C 8.830132 5.024092 -10.547358 0
M  V30 11 O 6.550872 5.645972 -19.961152 0 CHG=-1
M  V30 12 C 10.892875 8.457857 -8.550336 0
M  V30 13 O 12.782064 9.369296 -6.691669 0
M  V30 14 N 9.380198 6.499376 -8.548326 0
M  V30 15 N 7.941339 5.897074 -11.091612 0
M  V30 16 C 10.667397 7.008063 -9.023037 0
M  V30 17 C 9.433573 8.012456 -6.604722 0
M  V30 18 C 9.267893 6.561006 -7.087192 0
M  V30 19 C 6.531363 6.868950 -12.841879 0
M  V30 20 O 7.899725 5.143199 -17.620285 0
M  V30 21 C 11.701235 8.969233 -6.273563 0
M  V30 22 C 6.676043 6.165637 -15.187846 0
M  V30 23 S 4.720578 7.208560 -16.918428 0
M  V30 24 N 10.717982 8.513227 -7.096019 0
M  V30 25 C 8.129962 5.137924 -13.491883 0
M  V30 26 C 6.094254 6.077671 -18.877708 0
M  V30 27 H 5.320661 7.676762 -14.423246 0
M  V30 28 H 11.192404 7.971327 -4.404498 0
M  V30 29 H 12.323217 9.299104 -4.233841 0
M  V30 30 H 10.634816 9.671585 -4.521350 0
M  V30 31 H 4.291473 7.157481 -19.312217 0
M  V30 32 H 8.129652 4.800416 -8.564193 0
M  V30 33 H 9.833845 4.443681 -8.728747 0
M  V30 34 H 8.151886 4.598129 -15.555140 0
M  V30 35 H 11.870463 8.805505 -8.887412 0
M  V30 36 H 10.154648 9.107416 -9.022434 0
M  V30 37 H 7.497745 6.571148 -10.459720 0
M  V30 38 H 11.434747 6.358709 -8.620970 0
M  V30 39 H 10.731283 6.969410 -10.110977 0
M  V30 40 H 9.299048 8.041236 -5.530373 0
M  V30 41 H 8.636056 8.629635 -7.020850 0
M  V30 42 H 8.289630 6.195459 -6.770473 0
M  V30 43 H 10.014238 5.913574 -6.624108 0
M  V30 44 H 6.081218 7.494155 -12.083067 0
M  V30 45 H 8.900522 4.435411 -13.258903 0
M  V30 END ATOM
M  V30 BEGIN BOND
M  V30 1 1 7 2
M  V30 2 2 10 5
M  V30 3 1 10 8
M  V30 4 1 14 8
M  V30 5 1 15 3
M  V30 6 1 15 10
M  V30 7 1 16 12
M  V30 8 1 16 14
M  V30 9 1 18 14
M  V30 10 1 18 17
M  V30 11 2 19 1
M  V30 12 1 19 3
M  V30 13 2 20 2
M  V30 14 1 21 4
M  V30 15 2 21 13
M  V30 16 1 22 1
M  V30 17 1 22 7
M  V30 18 2 22 9
M  V30 19 1 23 6
M  V30 20 1 23 7
M  V30 21 1 24 12
M  V30 22 1 24 17
M  V30 23 1 24 21
M  V30 24 2 25 3
M  V30 25 1 25 9
M  V30 26 1 26 2
M  V30 27 2 26 6
M  V30 28 1 26 11
M  V30 29 1 27 1
M  V30 30 1 28 4
M  V30 31 1 29 4
M  V30 32 1 30 4
M  V30 33 1 31 6
M  V30 34 1 32 8
M  V30 35 1 33 8
M  V30 36 1 34 9
M  V30 37 1 35 12
M  V30 38 1 36 12
M  V30 39 1 37 15
M  V30 40 1 38 16
M  V30 41 1 39 16
M  V30 42 1 40 17
M  V30 43 1 41 17
M  V30 44 1 42 18
M  V30 45 1 43 18
M  V30 46 1 44 19
M  V30 47 1 45 25
M  V30 END BOND
M  V30 END CTAB
M  END
>  <i_epik_Tot_Q>  (1) 
-1

>  <i_epik_Tot_abs_Q>  (1) 
1

>  <i_i_glide_confnum>  (1) 
160

>  <i_i_glide_lignum>  (1) 
36

>  <i_i_glide_posenum>  (1) 
202

>  <i_i_glide_rotatable_bonds>  (1) 
6

>  <i_lp_mmshare_version>  (1) 
72125

>  <i_m_source_file_index>  (1) 
23

>  <i_f3d_flags>  (1) 
0

>  <num_sample>  (1) 
100

>  <b_lp_Chiralities_Consistent>  (1) 
1

>  <r_epik_Charging_Adjusted_Penalty>  (1) 
0.47379864770937913

>  <r_epik_Ionization_Penalty>  (1) 
0.47380121227694488

>  <r_epik_Ionization_Penalty_Charging>  (1) 
5.626758328864977e-05

>  <r_epik_Ionization_Penalty_Neutral>  (1) 
0.47374494469365624

>  <r_epik_State_Penalty>  (1) 
0.47374238012609049

>  <r_glide_ring_energy>  (1) 
0.020434014490612575

>  <r_i_docking_score>  (1) 
-5.3116506341008902

>  <r_i_glide_ecoul>  (1) 
-1.8631955940482725

>  <r_i_glide_eff_state_penalty>  (1) 
0.47374238012609049

>  <r_i_glide_einternal>  (1) 
3.2736629281937546

>  <r_i_glide_emodel>  (1) 
-55.15236543019094

>  <r_i_glide_emodel_strain>  (1) 
0

>  <r_i_glide_energy>  (1) 
-42.489976693030016

>  <r_i_glide_erotb>  (1) 
0.68631235361621001

>  <r_i_glide_esite>  (1) 
-0.08931151931785844

>  <r_i_glide_evdw>  (1) 
-40.626781098981745

>  <r_i_glide_gscore>  (1) 
-5.7853930142269805

>  <r_i_glide_gscore_strain>  (1) 
0

>  <r_i_glide_hbond>  (1) 
-0.16

>  <r_i_glide_ligand_efficiency>  (1) 
-0.20429425515772653

>  <r_i_glide_ligand_efficiency_ln>  (1) 
-1.247423722471295

>  <r_i_glide_ligand_efficiency_sa>  (1) 
-0.6052209277029772

>  <r_i_glide_lipo>  (1) 
-1.6480655948324561

>  <r_i_glide_metal>  (1) 
-0

>  <r_i_glide_rewards>  (1) 
-2.2635098596365464

>  <r_lp_Energy>  (1) 
63.227018999999999

>  <r_lp_tautomer_probability>  (1) 
1

>  <s_epik_cmdline>  (1) 
J2VwaWtfcHl0aG9uJywgJy1waHQnLCAnMS4wJywgJy1waCcsICc3LjQnLCAnLXRuJywgJzgnLCAnLW1hJywgJzUwMCcsICctaW1hZScsICc8aW5maWxlLm1hZT4nLCAnLW9tYWUnLCAnPG91dGZpbGUubWFlPic=

>  <s_epik_input>  (1) 
Tz1DMVtDSDJdU04oQzE9TyljKFtjSF1bY0hdMilbY0hdW2NIXWMyW05IXUMoPU8pW0NIMl1OM1tDSDJdW0NIMl1OKFtDSDJdW0NIMl0zKUMoPU8pW0NIM10=

>  <s_glide_docking_method>  (1) 
confgen

>  <s_i_glide_gridfile>  (1) 
gpcr_drd2_6luq_protein_autoprepared_prepared

>  <s_lp_Force_Field>  (1) 
S-OPLS

>  <s_lp_Variant>  (1) 
DiffSBDD_22_num_sample_100-2

>  <s_m_source_file>  (1) 
generated__ligand_DiffSBDD_2026-05-06_prepared.sdf

>  <GenAI_Model>  (1) 
DiffSBDD

>  <Protein>  (1) 
generic_title2

$$$$
DiffSBDD_47_num_sample_100
     RDKit          3D

  0  0  0  0  0  0  0  0  0  0999 V3000
M  V30 BEGIN CTAB
M  V30 COUNTS 61 67 0 0 1
M  V30 BEGIN ATOM
M  V30 1 C 10.757391 7.201671 -8.387046 0 CFG=1
M  V30 2 N 7.460144 4.744846 -9.910739 0
M  V30 3 N 4.625182 -0.815782 -17.018390 0
M  V30 4 C 6.361837 7.459524 -15.408668 0
M  V30 5 C 7.710046 2.375578 -15.877455 0
M  V30 6 C 9.503596 6.285647 -10.350970 0
M  V30 7 C 10.486802 7.077602 -9.843691 0
M  V30 8 C 4.958060 -0.778591 -18.311899 0
M  V30 9 N 6.182272 -0.366547 -18.581863 0
M  V30 10 N 6.583391 3.303587 -13.847920 0 CHG=1
M  V30 11 N 7.313560 5.465911 -12.143867 0
M  V30 12 N 8.159423 0.980542 -15.792569 0
M  V30 13 N 8.621716 5.397764 -12.360209 0
M  V30 14 C 5.836090 -0.344291 -16.447897 0
M  V30 15 C 6.772095 -0.083403 -17.388282 0
M  V30 16 C 8.843611 5.510750 -8.146613 0
M  V30 17 C 7.863953 3.164380 -14.565079 0
M  V30 18 N 6.067173 -0.174780 -15.101741 0
M  V30 19 C 6.718166 4.885158 -11.062609 0
M  V30 20 C 5.900583 4.604038 -14.052679 0
M  V30 21 O 5.562442 4.469949 -11.118586 0
M  V30 22 O 5.679485 6.914991 -13.093471 0
M  V30 23 F 11.289934 7.750514 -10.690898 0
M  V30 24 C 8.153071 0.396317 -17.175261 0 CFG=2
M  V30 25 C 9.190020 -0.733589 -17.273155 0
M  V30 26 C 7.447382 0.181227 -14.724547 0
M  V30 27 C 9.413207 6.169023 -11.761570 0
M  V30 28 C 6.541881 5.792629 -13.319168 0 CFG=1
M  V30 29 C 6.773707 7.135576 -13.988450 0 CFG=1
M  V30 30 C 9.929807 6.293215 -7.499093 0 CFG=2
M  V30 31 C 8.615225 5.491915 -9.472846 0
M  V30 32 C 11.111398 8.547734 -7.797015 0
M  V30 33 C 9.839319 7.812051 -7.407855 0 CFG=1
M  V30 34 H 6.993604 4.242521 -9.168470 0
M  V30 35 H 6.415062 8.534961 -15.580242 0
M  V30 36 H 7.029903 6.966510 -16.112010 0
M  V30 37 H 5.340418 7.128997 -15.602096 0
M  V30 38 H 6.692684 2.442970 -16.263691 0
M  V30 39 H 8.346962 2.866345 -16.614928 0
M  V30 40 H 4.267046 -1.071746 -19.089274 0
M  V30 41 H 6.755541 3.211458 -12.856259 0
M  V30 42 H 6.600258 -0.281026 -19.497264 0
M  V30 43 H 8.187224 4.960525 -7.492389 0
M  V30 44 H 8.282313 4.147995 -14.781681 0
M  V30 45 H 8.569263 2.680385 -13.890634 0
M  V30 46 H 5.427533 -0.554310 -14.413171 0
M  V30 47 H 4.878190 4.502130 -13.690525 0
M  V30 48 H 5.836816 4.818131 -15.117135 0
M  V30 49 H 8.412117 1.153947 -17.916926 0
M  V30 50 H 9.185012 -1.180379 -18.267688 0
M  V30 51 H 10.199193 -0.362692 -17.091667 0
M  V30 52 H 8.987153 -1.528617 -16.554417 0
M  V30 53 H 8.007162 -0.739373 -14.571248 0
M  V30 54 H 7.449448 0.688837 -13.760519 0
M  V30 55 H 10.121334 6.780438 -12.319761 0
M  V30 56 H 7.567244 7.761270 -13.582974 0
M  V30 57 H 10.455574 5.769301 -6.705530 0
M  V30 58 H 11.048174 9.388607 -8.478436 0
M  V30 59 H 11.928135 8.579360 -7.078691 0
M  V30 60 H 8.918588 8.259140 -7.777253 0
M  V30 61 H 5.975171 2.549159 -14.137580 0
M  V30 END ATOM
M  V30 BEGIN BOND
M  V30 1 1 7 1
M  V30 2 2 7 6
M  V30 3 2 8 3
M  V30 4 1 9 8
M  V30 5 1 12 5
M  V30 6 1 13 11
M  V30 7 1 14 3
M  V30 8 1 15 9
M  V30 9 2 15 14
M  V30 10 1 17 5
M  V30 11 1 17 10
M  V30 12 1 18 14
M  V30 13 1 19 2
M  V30 14 1 19 11
M  V30 15 1 20 10
M  V30 16 2 21 19
M  V30 17 1 23 7
M  V30 18 1 24 12
M  V30 19 1 24 15
M  V30 20 1 25 24
M  V30 21 1 26 12
M  V30 22 1 26 18
M  V30 23 1 27 6
M  V30 24 2 27 13
M  V30 25 1 28 11
M  V30 26 1 28 20 CFG=3
M  V30 27 1 28 22
M  V30 28 1 29 4
M  V30 29 1 29 22
M  V30 30 1 29 28
M  V30 31 1 30 1
M  V30 32 1 30 16
M  V30 33 1 31 2
M  V30 34 1 31 6
M  V30 35 2 31 16
M  V30 36 1 1 32 CFG=1
M  V30 37 1 33 1
M  V30 38 1 33 30
M  V30 39 1 33 32
M  V30 40 1 34 2
M  V30 41 1 35 4
M  V30 42 1 36 4
M  V30 43 1 37 4
M  V30 44 1 38 5
M  V30 45 1 39 5
M  V30 46 1 40 8
M  V30 47 1 41 10
M  V30 48 1 42 9
M  V30 49 1 43 16
M  V30 50 1 44 17
M  V30 51 1 45 17
M  V30 52 1 46 18
M  V30 53 1 47 20
M  V30 54 1 48 20
M  V30 55 1 24 49 CFG=3
M  V30 56 1 50 25
M  V30 57 1 51 25
M  V30 58 1 52 25
M  V30 59 1 53 26
M  V30 60 1 54 26
M  V30 61 1 55 27
M  V30 62 1 29 56 CFG=1
M  V30 63 1 30 57 CFG=1
M  V30 64 1 58 32
M  V30 65 1 59 32
M  V30 66 1 33 60 CFG=3
M  V30 67 1 61 10
M  V30 END BOND
M  V30 END CTAB
M  END
>  <i_epik_Tot_Q>  (1) 
1

>  <i_epik_Tot_abs_Q>  (1) 
1

>  <i_i_glide_confnum>  (1) 
153

>  <i_i_glide_lignum>  (1) 
87

>  <i_i_glide_posenum>  (1) 
280

>  <i_i_glide_rotatable_bonds>  (1) 
6

>  <i_lp_mmshare_version>  (1) 
72125

>  <i_m_source_file_index>  (1) 
48

>  <i_f3d_flags>  (1) 
2

>  <num_sample>  (1) 
100

>  <b_lp_Chiralities_Consistent>  (1) 
0

>  <r_epik_Charging_Adjusted_Penalty>  (1) 
0.25375292515256775

>  <r_epik_Ionization_Penalty>  (1) 
0.18021772770564537

>  <r_epik_Ionization_Penalty_Charging>  (1) 
0.12840531132269745

>  <r_epik_Ionization_Penalty_Neutral>  (1) 
0.05181241638294791

>  <r_epik_State_Penalty>  (1) 
0.12534761382987034

>  <r_glide_ring_energy>  (1) 
0

>  <r_i_docking_score>  (1) 
-5.3003208815224516

>  <r_i_glide_ecoul>  (1) 
-3.1806919316436177

>  <r_i_glide_eff_state_penalty>  (1) 
0.12534761382987034

>  <r_i_glide_einternal>  (1) 
6.8770980286405639

>  <r_i_glide_emodel>  (1) 
-57.169403989498967

>  <r_i_glide_emodel_strain>  (1) 
0.052593300643195562

>  <r_i_glide_energy>  (1) 
-45.464919430642631

>  <r_i_glide_erotb>  (1) 
0.58091350073026182

>  <r_i_glide_esite>  (1) 
-0.13715376250193589

>  <r_i_glide_evdw>  (1) 
-42.284227498999016

>  <r_i_glide_gscore>  (1) 
-5.4256684953523218

>  <r_i_glide_gscore_strain>  (1) 
0

>  <r_i_glide_hbond>  (1) 
-0.14659099484453872

>  <r_i_glide_ligand_efficiency>  (1) 
-0.16061578428855913

>  <r_i_glide_ligand_efficiency_ln>  (1) 
-1.1787639204578182

>  <r_i_glide_ligand_efficiency_sa>  (1) 
-0.51518064204475778

>  <r_i_glide_lipo>  (1) 
-1.2722495256643909

>  <r_i_glide_metal>  (1) 
-0

>  <r_i_glide_rewards>  (1) 
-1.859272548375225

>  <r_lp_Energy>  (1) 
70.574212000000003

>  <r_lp_tautomer_probability>  (1) 
0.94542902837213583

>  <s_epik_Chemistry_Notes>  (1) 
This compound has an imine and may undergo hydrolysis. This compound contains an acetal/aminal-like group ( X-CH(R)-Y where X, Y are N, S, or O) that may be acid/base labile, releasing an aldehyde.

>  <s_epik_cmdline>  (1) 
J2VwaWtfcHl0aG9uJywgJy1waHQnLCAnMS4wJywgJy1waCcsICc3LjQnLCAnLXRuJywgJzgnLCAnLW1hJywgJzUwMCcsICctaW1hZScsICc8aW5maWxlLm1hZT4nLCAnLW9tYWUnLCAnPG91dGZpbGUubWFlPic=

>  <s_epik_input>  (1) 
W0NIMl0xW0NAQEhdMltDQEhdKEMxMjMpW0NIXT1DNEMoPUMzRilbQ0hdPU5OKEMoPU8pW05IXTQpW0NAXTUoT1tDQEBIXTVbQ0gzXSlbQ0gyXVtOSF1bQ0gyXVtDSDJdTihbQ0gyXVtOSF02KVtDQEBIXShbQ0gzXSlbQ0BIXShDNjcpTj1bQ0hdTj03

>  <s_glide_docking_method>  (1) 
confgen

>  <s_i_glide_gridfile>  (1) 
gpcr_drd2_6luq_protein_autoprepared_prepared

>  <s_lp_Force_Field>  (1) 
S-OPLS

>  <s_lp_Variant>  (1) 
DiffSBDD_47_num_sample_100-1

>  <s_m_source_file>  (1) 
generated__ligand_DiffSBDD_2026-05-06_prepared.sdf

>  <GenAI_Model>  (1) 
DiffSBDD

>  <Protein>  (1) 
generic_title2

$$$$
DiffSBDD_51_num_sample_100
     RDKit          3D

  0  0  0  0  0  0  0  0  0  0999 V3000
M  V30 BEGIN CTAB
M  V30 COUNTS 33 34 0 0 1
M  V30 BEGIN ATOM
M  V30 1 C 4.650369 7.727260 -17.013178 0
M  V30 2 C 5.563506 6.663801 -16.376057 0
M  V30 3 C 6.222739 7.295339 -15.123340 0
M  V30 4 O 7.972337 5.639100 -14.763105 0
M  V30 5 C 4.898927 6.691285 -19.306828 0
M  V30 6 C 9.034868 5.072512 -10.686430 0
M  V30 7 N 7.731664 5.769301 -10.691667 0 CHG=1
M  V30 8 C 8.862202 4.874529 -12.234053 0
M  V30 9 C 3.912162 7.226509 -18.259556 0
M  V30 10 C 7.732170 5.818676 -12.006379 0
M  V30 11 C 6.549670 6.148958 -17.455748 0
M  V30 12 N 6.946607 6.510937 -12.863866 0
M  V30 13 C 5.822551 5.624635 -18.704604 0
M  V30 14 C 7.132851 6.392997 -14.281838 0
M  V30 15 H 3.925309 8.104792 -16.291648 0
M  V30 16 H 5.277823 8.569300 -17.296667 0
M  V30 17 H 4.946191 5.825640 -16.051462 0
M  V30 18 H 5.435818 7.687677 -14.477360 0
M  V30 19 H 6.815329 8.160568 -15.422483 0
M  V30 20 H 4.359431 6.276703 -20.158577 0
M  V30 21 H 5.499798 7.515785 -19.693255 0
M  V30 22 H 9.838643 5.753229 -10.411185 0
M  V30 23 H 9.034001 4.166191 -10.089730 0
M  V30 24 H 8.537151 3.879869 -12.542474 0
M  V30 25 H 9.673601 5.292706 -12.831469 0
M  V30 26 H 3.200071 6.455630 -17.970846 0
M  V30 27 H 3.327249 8.040257 -18.689956 0
M  V30 28 H 7.220189 6.952280 -17.759730 0
M  V30 29 H 7.175348 5.345452 -17.071616 0
M  V30 30 H 7.434839 6.527206 -10.061090 0
M  V30 31 H 5.243857 4.738169 -18.450199 0
M  V30 32 H 6.552470 5.307149 -19.449918 0
M  V30 33 H 6.254351 7.113454 -12.442127 0
M  V30 END ATOM
M  V30 BEGIN BOND
M  V30 1 1 2 1
M  V30 2 1 3 2
M  V30 3 1 7 6
M  V30 4 1 8 6
M  V30 5 1 9 1
M  V30 6 1 9 5
M  V30 7 2 10 7
M  V30 8 1 10 8
M  V30 9 1 11 2
M  V30 10 1 12 10
M  V30 11 1 13 5
M  V30 12 1 13 11
M  V30 13 1 14 3
M  V30 14 2 14 4
M  V30 15 1 14 12
M  V30 16 1 15 1
M  V30 17 1 16 1
M  V30 18 1 17 2
M  V30 19 1 18 3
M  V30 20 1 19 3
M  V30 21 1 20 5
M  V30 22 1 21 5
M  V30 23 1 22 6
M  V30 24 1 23 6
M  V30 25 1 24 8
M  V30 26 1 25 8
M  V30 27 1 26 9
M  V30 28 1 27 9
M  V30 29 1 28 11
M  V30 30 1 29 11
M  V30 31 1 30 7
M  V30 32 1 31 13
M  V30 33 1 32 13
M  V30 34 1 33 12
M  V30 END BOND
M  V30 END CTAB
M  END
>  <i_epik_Tot_Q>  (1) 
1

>  <i_epik_Tot_abs_Q>  (1) 
1

>  <i_i_glide_confnum>  (1) 
3

>  <i_i_glide_lignum>  (1) 
96

>  <i_i_glide_posenum>  (1) 
106

>  <i_i_glide_rotatable_bonds>  (1) 
4

>  <i_lp_mmshare_version>  (1) 
72125

>  <i_m_source_file_index>  (1) 
52

>  <i_f3d_flags>  (1) 
0

>  <num_sample>  (1) 
100

>  <b_lp_Chiralities_Consistent>  (1) 
1

>  <r_epik_Charging_Adjusted_Penalty>  (1) 
0.0012355626880465899

>  <r_epik_Ionization_Penalty>  (1) 
0.0012355626882857627

>  <r_epik_Ionization_Penalty_Charging>  (1) 
0.0012355626880465899

>  <r_epik_Ionization_Penalty_Neutral>  (1) 
2.3917293134818898e-13

>  <r_epik_State_Penalty>  (1) 
-0

>  <r_glide_ring_energy>  (1) 
0

>  <r_i_docking_score>  (1) 
-5.2992299800934282

>  <r_i_glide_ecoul>  (1) 
-6.7631023547033271

>  <r_i_glide_eff_state_penalty>  (1) 
-0

>  <r_i_glide_einternal>  (1) 
1.1238297158317851

>  <r_i_glide_emodel>  (1) 
-31.809760964794695

>  <r_i_glide_emodel_strain>  (1) 
0.001792194723918783

>  <r_i_glide_energy>  (1) 
-21.086258547275555

>  <r_i_glide_erotb>  (1) 
0.84972591180096124

>  <r_i_glide_esite>  (1) 
-0.15414006277581369

>  <r_i_glide_evdw>  (1) 
-14.323156192572229

>  <r_i_glide_gscore>  (1) 
-5.2992299800934282

>  <r_i_glide_gscore_strain>  (1) 
0

>  <r_i_glide_hbond>  (1) 
-0.20000000000000001

>  <r_i_glide_ligand_efficiency>  (1) 
-0.3785164271495306

>  <r_i_glide_ligand_efficiency_ln>  (1) 
-1.4562095345317609

>  <r_i_glide_ligand_efficiency_sa>  (1) 
-0.91227843875768821

>  <r_i_glide_lipo>  (1) 
-1.5780880358259539

>  <r_i_glide_metal>  (1) 
-0

>  <r_i_glide_rewards>  (1) 
-2.4861046304585108

>  <r_lp_Energy>  (1) 
15.798371999999999

>  <r_lp_tautomer_probability>  (1) 
1

>  <s_epik_Chemistry_Notes>  (1) 
This compound has an imine and may undergo hydrolysis.

>  <s_epik_cmdline>  (1) 
J2VwaWtfcHl0aG9uJywgJy1waHQnLCAnMS4wJywgJy1waCcsICc3LjQnLCAnLXRuJywgJzgnLCAnLW1hJywgJzUwMCcsICctaW1hZScsICc8aW5maWxlLm1hZT4nLCAnLW9tYWUnLCAnPG91dGZpbGUubWFlPic=

>  <s_epik_input>  (1) 
W0NIMl0xW0NIMl1bQ0gyXVtDSDJdW0NIMl1bQ0hdMVtDSDJdQyg9TylbTkhdQzI9TltDSDJdW0NIMl0y

>  <s_glide_docking_method>  (1) 
confgen

>  <s_i_glide_gridfile>  (1) 
gpcr_drd2_6luq_protein_autoprepared_prepared

>  <s_lp_Force_Field>  (1) 
S-OPLS

>  <s_lp_Variant>  (1) 
DiffSBDD_51_num_sample_100-1

>  <s_m_source_file>  (1) 
generated__ligand_DiffSBDD_2026-05-06_prepared.sdf

>  <GenAI_Model>  (1) 
DiffSBDD

>  <Protein>  (1) 
generic_title2

$$$$
DiffSBDD_74_num_sample_100
     RDKit          3D

  0  0  0  0  0  0  0  0  0  0999 V3000
M  V30 BEGIN CTAB
M  V30 COUNTS 50 51 0 0 1
M  V30 BEGIN ATOM
M  V30 1 C 9.830208 6.974085 -7.758966 0
M  V30 2 C 8.234835 4.169304 -14.938036 0
M  V30 3 F 7.440834 7.195475 -14.198816 0
M  V30 4 C 11.797744 9.050014 -6.988928 0 CFG=1
M  V30 5 O 6.500411 3.800452 -11.544142 0
M  V30 6 C 8.933632 5.094168 -12.662383 0
M  V30 7 C 10.978453 7.424252 -9.951165 0
M  V30 8 C 12.192325 7.787987 -7.777695 0 CFG=2
M  V30 9 F 12.964894 9.114097 -4.885999 0
M  V30 10 C 9.375251 8.251868 -7.046059 0
M  V30 11 F 9.006535 9.148824 -7.954889 0
M  V30 12 F 13.246723 8.076256 -8.545277 0
M  V30 13 C 10.513953 8.815419 -6.178489 0
M  V30 14 C 8.253865 6.357781 -12.082837 0 CFG=2
M  V30 15 C 8.091885 4.026433 -13.403339 0 CFG=1
M  V30 16 O 6.189747 2.618758 -13.491639 0
M  V30 17 C 12.860782 9.699753 -6.080938 0
M  V30 18 C 6.618145 3.842727 -12.944263 0
M  V30 19 O 11.895679 7.769307 -10.691664 0
M  V30 20 C 5.779903 6.309452 -12.797297 0
M  V30 21 F 8.319470 7.993522 -6.291667 0
M  V30 22 N 11.010794 7.362165 -8.544009 0
M  V30 23 C 7.133834 7.006804 -12.919314 0 CFG=2
M  V30 24 C 5.649803 4.924843 -13.458073 0
M  V30 25 O 9.778606 7.051041 -10.388375 0
M  V30 26 F 14.059433 9.769298 -6.652731 0
M  V30 27 C 9.331379 7.382326 -11.688967 0
M  V30 28 H 8.993224 6.529837 -8.298769 0
M  V30 29 H 10.125957 6.222072 -7.026088 0
M  V30 30 H 7.805803 5.093494 -15.317424 0
M  V30 31 H 9.282198 4.169304 -15.238771 0
M  V30 32 H 7.754613 3.345096 -15.465899 0
M  V30 33 H 11.566708 9.769308 -7.766457 0
M  V30 34 H 6.673251 4.665059 -11.203221 0
M  V30 35 H 9.751137 5.397031 -13.317375 0
M  V30 36 H 9.433898 4.597386 -11.828740 0
M  V30 37 H 12.480293 6.977549 -7.109271 0
M  V30 38 H 10.234839 9.749561 -5.696180 0
M  V30 39 H 10.716702 8.109351 -5.371946 0
M  V30 40 H 7.770814 6.074032 -11.146951 0
M  V30 41 H 8.597558 3.087602 -13.168671 0
M  V30 42 H 6.757392 1.937803 -13.165102 0
M  V30 43 H 12.557290 10.725953 -5.891668 0
M  V30 44 H 5.034840 6.962094 -13.249180 0
M  V30 45 H 5.494733 6.250533 -11.745490 0
M  V30 46 H 6.981431 8.011968 -12.524788 0
M  V30 47 H 5.717501 5.028096 -14.540345 0
M  V30 48 H 4.634841 4.569351 -13.281856 0
M  V30 49 H 10.142098 7.399461 -12.418486 0
M  V30 50 H 8.921076 8.391210 -11.641362 0
M  V30 END ATOM
M  V30 BEGIN BOND
M  V30 1 1 8 4
M  V30 2 1 10 1
M  V30 3 1 11 10
M  V30 4 1 12 8
M  V30 5 1 13 4
M  V30 6 1 13 10
M  V30 7 1 14 6
M  V30 8 1 15 2
M  V30 9 1 15 6
M  V30 10 1 17 4
M  V30 11 1 17 9
M  V30 12 1 18 5
M  V30 13 1 18 15
M  V30 14 1 18 16
M  V30 15 2 19 7
M  V30 16 1 21 10
M  V30 17 1 22 1
M  V30 18 1 22 7
M  V30 19 1 22 8
M  V30 20 1 23 3
M  V30 21 1 23 14
M  V30 22 1 23 20
M  V30 23 1 24 18
M  V30 24 1 24 20
M  V30 25 1 25 7
M  V30 26 1 26 17
M  V30 27 1 27 14
M  V30 28 1 27 25
M  V30 29 1 28 1
M  V30 30 1 29 1
M  V30 31 1 30 2
M  V30 32 1 31 2
M  V30 33 1 32 2
M  V30 34 1 4 33 CFG=3
M  V30 35 1 34 5
M  V30 36 1 35 6
M  V30 37 1 36 6
M  V30 38 1 8 37 CFG=1
M  V30 39 1 38 13
M  V30 40 1 39 13
M  V30 41 1 14 40 CFG=1
M  V30 42 1 15 41 CFG=1
M  V30 43 1 42 16
M  V30 44 1 43 17
M  V30 45 1 44 20
M  V30 46 1 45 20
M  V30 47 1 23 46 CFG=1
M  V30 48 1 47 24
M  V30 49 1 48 24
M  V30 50 1 49 27
M  V30 51 1 50 27
M  V30 END BOND
M  V30 END CTAB
M  END
>  <i_epik_Tot_Q>  (1) 
0

>  <i_epik_Tot_abs_Q>  (1) 
0

>  <i_i_glide_confnum>  (1) 
314

>  <i_i_glide_lignum>  (1) 
149

>  <i_i_glide_posenum>  (1) 
352

>  <i_i_glide_rotatable_bonds>  (1) 
7

>  <i_lp_mmshare_version>  (1) 
72125

>  <i_m_source_file_index>  (1) 
75

>  <i_f3d_flags>  (1) 
0

>  <num_sample>  (1) 
100

>  <b_lp_Chiralities_Consistent>  (1) 
1

>  <r_epik_Charging_Adjusted_Penalty>  (1) 
0

>  <r_epik_Ionization_Penalty>  (1) 
3.1339630279600532e-07

>  <r_epik_Ionization_Penalty_Charging>  (1) 
0

>  <r_epik_Ionization_Penalty_Neutral>  (1) 
3.1339630279600532e-07

>  <r_epik_State_Penalty>  (1) 
-0

>  <r_glide_ring_energy>  (1) 
2.4879079319723991

>  <r_i_docking_score>  (1) 
-5.2922069332418715

>  <r_i_glide_ecoul>  (1) 
-2.2367506406816098

>  <r_i_glide_eff_state_penalty>  (1) 
-0

>  <r_i_glide_einternal>  (1) 
7.307542451280467

>  <r_i_glide_emodel>  (1) 
-37.225078680087279

>  <r_i_glide_emodel_strain>  (1) 
1.7647500664343738

>  <r_i_glide_energy>  (1) 
-32.379742478095196

>  <r_i_glide_erotb>  (1) 
0.47417469053287281

>  <r_i_glide_esite>  (1) 
-0.14470589859463198

>  <r_i_glide_evdw>  (1) 
-30.142991837413582

>  <r_i_glide_gscore>  (1) 
-5.2922069332418715

>  <r_i_glide_gscore_strain>  (1) 
0

>  <r_i_glide_hbond>  (1) 
0

>  <r_i_glide_ligand_efficiency>  (1) 
-0.19600766419414339

>  <r_i_glide_ligand_efficiency_ln>  (1) 
-1.2319385252085451

>  <r_i_glide_ligand_efficiency_sa>  (1) 
-0.58802299258243029

>  <r_i_glide_lipo>  (1) 
-1.4704498319952364

>  <r_i_glide_metal>  (1) 
-0

>  <r_i_glide_rewards>  (1) 
-2.3085637052119545

>  <r_lp_Energy>  (1) 
27.319579999999998

>  <r_lp_tautomer_probability>  (1) 
1

>  <s_epik_Chemistry_Notes>  (1) 
This compound has an ester and may undergo hydrolysis at high or low pH.

>  <s_epik_cmdline>  (1) 
J2VwaWtfcHl0aG9uJywgJy1waHQnLCAnMS4wJywgJy1waCcsICc3LjQnLCAnLXRuJywgJzgnLCAnLW1hJywgJzUwMCcsICctaW1hZScsICc8aW5maWxlLm1hZT4nLCAnLW9tYWUnLCAnPG91dGZpbGUubWFlPic=

>  <s_epik_input>  (1) 
RltDSF0oRilbQ0BIXShbQ0gyXTEpW0NAQEhdKEYpTihbQ0gyXUMxKEYpRilDKD1PKU9bQ0gyXVtDQEBIXShbQ0BASF0oRilbQ0gyXVtDSDJdMilbQ0gyXVtDQEhdKFtDSDNdKUMyKFtPSF0pW09IXQ==

>  <s_glide_docking_method>  (1) 
confgen

>  <s_i_glide_gridfile>  (1) 
gpcr_drd2_6luq_protein_autoprepared_prepared

>  <s_lp_Force_Field>  (1) 
S-OPLS

>  <s_lp_Variant>  (1) 
DiffSBDD_74_num_sample_100-2

>  <s_m_source_file>  (1) 
generated__ligand_DiffSBDD_2026-05-06_prepared.sdf

>  <GenAI_Model>  (1) 
DiffSBDD

>  <Protein>  (1) 
generic_title2

$$$$
DiffSBDD_93_num_sample_100
     RDKit          3D

  0  0  0  0  0  0  0  0  0  0999 V3000
M  V30 BEGIN CTAB
M  V30 COUNTS 36 36 0 0 1
M  V30 BEGIN ATOM
M  V30 1 C 11.554593 6.865751 -2.602621 0
M  V30 2 C 9.407430 7.474227 -6.175936 0
M  V30 3 C 12.517429 6.056700 -1.748409 0
M  V30 4 C 11.702422 7.556218 -8.232078 0
M  V30 5 C 12.337171 8.934699 -8.041287 0
M  V30 6 C 12.283029 7.852614 -3.553240 0 CFG=2
M  V30 7 C 10.862871 7.177897 -5.753091 0 CFG=2
M  V30 8 C 12.748478 9.064401 -2.713550 0
M  V30 9 C 12.210277 9.460995 -5.551069 0
M  V30 10 C 11.482630 8.307537 -4.824137 0 CFG=2
M  V30 11 C 11.654166 6.650328 -6.977296 0
M  V30 12 C 11.679905 9.769300 -6.931695 0
M  V30 13 H 10.898021 6.169070 -3.113022 0
M  V30 14 H 10.931958 7.406179 -1.891668 0
M  V30 15 H 9.288103 7.935625 -7.151098 0
M  V30 16 H 8.814766 6.559098 -6.206630 0
M  V30 17 H 8.935626 8.168903 -5.491805 0
M  V30 18 H 11.975306 5.369301 -1.105858 0
M  V30 19 H 13.035806 6.733779 -1.091659 0
M  V30 20 H 13.248166 5.489340 -2.319669 0
M  V30 21 H 10.707132 7.683850 -8.653338 0
M  V30 22 H 12.234836 7.046213 -9.032240 0
M  V30 23 H 12.234624 9.461732 -8.990474 0
M  V30 24 H 13.409916 8.840635 -7.867621 0
M  V30 25 H 13.190701 7.369274 -3.891662 0
M  V30 26 H 10.765758 6.292409 -5.135057 0
M  V30 27 H 11.905711 9.676700 -2.389483 0
M  V30 28 H 13.293104 8.768460 -1.818962 0
M  V30 29 H 13.434696 9.703669 -3.266727 0
M  V30 30 H 12.039271 10.362748 -4.963608 0
M  V30 31 H 13.295643 9.369288 -5.579420 0
M  V30 32 H 10.634839 8.833141 -4.401462 0
M  V30 33 H 11.150530 5.737305 -7.297978 0
M  V30 34 H 12.634839 6.287717 -6.691675 0
M  V30 35 H 10.604472 9.651567 -6.924614 0
M  V30 36 H 11.834834 10.833160 -7.091666 0
M  V30 END ATOM
M  V30 BEGIN BOND
M  V30 1 1 3 1
M  V30 2 1 5 4
M  V30 3 1 6 1
M  V30 4 1 7 2
M  V30 5 1 8 6
M  V30 6 1 10 6
M  V30 7 1 10 7
M  V30 8 1 10 9
M  V30 9 1 11 4
M  V30 10 1 11 7
M  V30 11 1 12 5
M  V30 12 1 12 9
M  V30 13 1 13 1
M  V30 14 1 14 1
M  V30 15 1 15 2
M  V30 16 1 16 2
M  V30 17 1 17 2
M  V30 18 1 18 3
M  V30 19 1 19 3
M  V30 20 1 20 3
M  V30 21 1 21 4
M  V30 22 1 22 4
M  V30 23 1 23 5
M  V30 24 1 24 5
M  V30 25 1 6 25 CFG=3
M  V30 26 1 7 26 CFG=1
M  V30 27 1 27 8
M  V30 28 1 28 8
M  V30 29 1 29 8
M  V30 30 1 30 9
M  V30 31 1 31 9
M  V30 32 1 10 32 CFG=1
M  V30 33 1 33 11
M  V30 34 1 34 11
M  V30 35 1 35 12
M  V30 36 1 36 12
M  V30 END BOND
M  V30 END CTAB
M  END
>  <i_epik_Tot_Q>  (1) 
0

>  <i_epik_Tot_abs_Q>  (1) 
0

>  <i_i_glide_confnum>  (1) 
28

>  <i_i_glide_lignum>  (1) 
188

>  <i_i_glide_posenum>  (1) 
107

>  <i_i_glide_rotatable_bonds>  (1) 
2

>  <i_lp_mmshare_version>  (1) 
72125

>  <i_m_source_file_index>  (1) 
94

>  <i_f3d_flags>  (1) 
0

>  <num_sample>  (1) 
100

>  <b_lp_Chiralities_Consistent>  (1) 
1

>  <r_epik_Charging_Adjusted_Penalty>  (1) 
0

>  <r_epik_Ionization_Penalty>  (1) 
0

>  <r_epik_Ionization_Penalty_Charging>  (1) 
0

>  <r_epik_Ionization_Penalty_Neutral>  (1) 
0

>  <r_epik_State_Penalty>  (1) 
-0

>  <r_glide_ring_energy>  (1) 
1.9313137795550155

>  <r_i_docking_score>  (1) 
-5.2791416266417075

>  <r_i_glide_ecoul>  (1) 
-0.013521973868277082

>  <r_i_glide_eff_state_penalty>  (1) 
-0

>  <r_i_glide_einternal>  (1) 
0.51990096819133669

>  <r_i_glide_emodel>  (1) 
-11.717955520223303

>  <r_i_glide_emodel_strain>  (1) 
2.8260746666970711

>  <r_i_glide_energy>  (1) 
-10.854611246880932

>  <r_i_glide_erotb>  (1) 
0.54244534581565329

>  <r_i_glide_esite>  (1) 
0

>  <r_i_glide_evdw>  (1) 
-10.841089273012654

>  <r_i_glide_gscore>  (1) 
-5.2791416266417075

>  <r_i_glide_gscore_strain>  (1) 
0

>  <r_i_glide_hbond>  (1) 
0

>  <r_i_glide_ligand_efficiency>  (1) 
-0.43992846888680898

>  <r_i_glide_ligand_efficiency_ln>  (1) 
-1.5148588347302954

>  <r_i_glide_ligand_efficiency_sa>  (1) 
-1.0071847680788211

>  <r_i_glide_lipo>  (1) 
-2.3935173456838457

>  <r_i_glide_metal>  (1) 
-0

>  <r_i_glide_rewards>  (1) 
-2.8839868670426405

>  <r_lp_Energy>  (1) 
24.382804

>  <r_lp_tautomer_probability>  (1) 
1

>  <s_epik_cmdline>  (1) 
J2VwaWtfcHl0aG9uJywgJy1waHQnLCAnMS4wJywgJy1waCcsICc3LjQnLCAnLXRuJywgJzgnLCAnLW1hJywgJzUwMCcsICctaW1hZScsICc8aW5maWxlLm1hZT4nLCAnLW9tYWUnLCAnPG91dGZpbGUubWFlPic=

>  <s_epik_input>  (1) 
W0NIM11bQ0gyXVtDQEhdKFtDSDNdKVtDQEhdKFtDQEhdMVtDSDNdKVtDSDJdW0NIMl1bQ0gyXVtDSDJdW0NIMl0x

>  <s_glide_docking_method>  (1) 
confgen

>  <s_i_glide_gridfile>  (1) 
gpcr_drd2_6luq_protein_autoprepared_prepared

>  <s_lp_Force_Field>  (1) 
S-OPLS

>  <s_lp_Variant>  (1) 
DiffSBDD_93_num_sample_100-1

>  <s_m_source_file>  (1) 
generated__ligand_DiffSBDD_2026-05-06_prepared.sdf

>  <GenAI_Model>  (1) 
DiffSBDD

>  <Protein>  (1) 
generic_title2

$$$$
DiffSBDD_83_num_sample_100
     RDKit          3D

  0  0  0  0  0  0  0  0  0  0999 V3000
M  V30 BEGIN CTAB
M  V30 COUNTS 48 52 0 0 1
M  V30 BEGIN ATOM
M  V30 1 C 9.197473 5.624156 -9.158111 0
M  V30 2 C 6.115448 6.690145 -18.809742 0
M  V30 3 C 4.750487 6.443829 -16.794208 0 CFG=1
M  V30 4 C 5.706456 5.540543 -13.930691 0
M  V30 5 C 6.101486 6.682039 -16.142854 0 CFG=2
M  V30 6 N 6.832732 5.185903 -11.501413 0
M  V30 7 C 4.014788 7.352595 -17.736030 0
M  V30 8 C 10.545838 7.661919 -9.146901 0
M  V30 9 C 6.005138 5.978777 -17.479002 0 CFG=2
M  V30 10 C 6.501766 5.902008 -14.931139 0
M  V30 11 C 11.344822 8.712370 -8.393920 0
M  V30 12 C 8.239348 4.697361 -11.322467 0 CFG=1
M  V30 13 C 9.654770 6.802705 -11.246593 0
M  V30 14 C 7.760822 5.450857 -14.635808 0
M  V30 15 C 9.943289 6.591192 -8.451574 0
M  V30 16 C 5.018921 7.769593 -18.816132 0
M  V30 17 C 8.870860 4.295902 -12.713382 0
M  V30 18 C 10.400700 7.760008 -10.542571 0
M  V30 19 C 7.731327 4.802043 -13.480284 0
M  V30 20 C 12.753465 8.250654 -8.015166 0
M  V30 21 O 13.580369 8.169312 -9.161187 0
M  V30 22 C 6.381077 4.682129 -12.790905 0 CFG=2
M  V30 23 C 9.052523 5.729706 -10.559203 0
M  V30 24 H 8.732940 4.807060 -8.626274 0
M  V30 25 H 7.113799 7.104864 -18.950263 0
M  V30 26 H 5.937329 5.967258 -19.606735 0
M  V30 27 H 4.098606 5.769418 -16.270865 0
M  V30 28 H 4.653374 5.769413 -13.891571 0
M  V30 29 H 6.475544 7.703833 -16.132110 0
M  V30 30 H 6.827211 6.196975 -11.425884 0
M  V30 31 H 3.564076 8.169292 -17.184584 0
M  V30 32 H 3.202319 6.784505 -18.188173 0
M  V30 33 H 6.233573 4.916107 -17.493187 0
M  V30 34 H 10.789616 8.969012 -7.491104 0
M  V30 35 H 11.419161 9.624694 -8.988242 0
M  V30 36 H 8.198337 3.794482 -10.714854 0
M  V30 37 H 9.542658 6.892098 -12.316282 0
M  V30 38 H 8.648186 5.651840 -15.217981 0
M  V30 39 H 10.050017 6.512689 -7.379488 0
M  V30 40 H 5.434849 8.737715 -18.553871 0
M  V30 41 H 4.552557 7.881171 -19.795284 0
M  V30 42 H 9.823738 4.759685 -12.970976 0
M  V30 43 H 8.946462 3.213285 -12.817015 0
M  V30 44 H 10.858487 8.569535 -11.072839 0
M  V30 45 H 12.704458 7.297305 -7.491779 0
M  V30 46 H 13.206571 8.968052 -7.329879 0
M  V30 47 H 13.778389 9.052453 -9.458040 0
M  V30 48 H 6.048796 3.643699 -12.758832 0
M  V30 END ATOM
M  V30 BEGIN BOND
M  V30 1 1 5 3
M  V30 2 1 7 3
M  V30 3 1 9 2
M  V30 4 1 9 3
M  V30 5 1 9 5
M  V30 6 2 10 4
M  V30 7 1 10 5
M  V30 8 1 11 8
M  V30 9 1 12 6
M  V30 10 1 14 10
M  V30 11 2 15 1
M  V30 12 1 15 8
M  V30 13 1 16 2
M  V30 14 1 16 7
M  V30 15 1 17 12
M  V30 16 2 18 8
M  V30 17 1 18 13
M  V30 18 2 19 14
M  V30 19 1 19 17
M  V30 20 1 20 11
M  V30 21 1 21 20
M  V30 22 1 22 4
M  V30 23 1 22 6
M  V30 24 1 22 19
M  V30 25 1 23 1
M  V30 26 1 23 12
M  V30 27 2 23 13
M  V30 28 1 24 1
M  V30 29 1 25 2
M  V30 30 1 26 2
M  V30 31 1 3 27 CFG=1
M  V30 32 1 28 4
M  V30 33 1 5 29 CFG=3
M  V30 34 1 30 6
M  V30 35 1 31 7
M  V30 36 1 32 7
M  V30 37 1 9 33 CFG=1
M  V30 38 1 34 11
M  V30 39 1 35 11
M  V30 40 1 12 36 CFG=1
M  V30 41 1 37 13
M  V30 42 1 38 14
M  V30 43 1 39 15
M  V30 44 1 40 16
M  V30 45 1 41 16
M  V30 46 1 42 17
M  V30 47 1 43 17
M  V30 48 1 44 18
M  V30 49 1 45 20
M  V30 50 1 46 20
M  V30 51 1 47 21
M  V30 52 1 22 48 CFG=1
M  V30 END BOND
M  V30 END CTAB
M  END
>  <i_epik_Tot_Q>  (1) 
0

>  <i_epik_Tot_abs_Q>  (1) 
0

>  <i_i_glide_confnum>  (1) 
283

>  <i_i_glide_lignum>  (1) 
171

>  <i_i_glide_posenum>  (1) 
222

>  <i_i_glide_rotatable_bonds>  (1) 
5

>  <i_lp_mmshare_version>  (1) 
72125

>  <i_m_source_file_index>  (1) 
84

>  <i_f3d_flags>  (1) 
0

>  <num_sample>  (1) 
100

>  <b_lp_Chiralities_Consistent>  (1) 
1

>  <r_epik_Charging_Adjusted_Penalty>  (1) 
0.79484472859609101

>  <r_epik_Ionization_Penalty>  (1) 
0.79484480768617471

>  <r_epik_Ionization_Penalty_Charging>  (1) 
0

>  <r_epik_Ionization_Penalty_Neutral>  (1) 
0.79484480768617471

>  <r_epik_State_Penalty>  (1) 
0.79484472859609101

>  <r_glide_ring_energy>  (1) 
0

>  <r_i_docking_score>  (1) 
-5.271527642179537

>  <r_i_glide_ecoul>  (1) 
-2.9188170979017904

>  <r_i_glide_eff_state_penalty>  (1) 
0.79484472859609101

>  <r_i_glide_einternal>  (1) 
3.9107265976970078

>  <r_i_glide_emodel>  (1) 
-42.569017396048288

>  <r_i_glide_emodel_strain>  (1) 
0.26012240061709235

>  <r_i_glide_energy>  (1) 
-33.376443618928633

>  <r_i_glide_erotb>  (1) 
0.7823539513187745

>  <r_i_glide_esite>  (1) 
0

>  <r_i_glide_evdw>  (1) 
-30.457626521026846

>  <r_i_glide_gscore>  (1) 
-6.0663723707756283

>  <r_i_glide_gscore_strain>  (1) 
0

>  <r_i_glide_hbond>  (1) 
-0.32000000000000001

>  <r_i_glide_ligand_efficiency>  (1) 
-0.22919685400780596

>  <r_i_glide_ligand_efficiency_ln>  (1) 
-1.2747031834489331

>  <r_i_glide_ligand_efficiency_sa>  (1) 
-0.65180536499865938

>  <r_i_glide_lipo>  (1) 
-2.4511200978241661

>  <r_i_glide_metal>  (1) 
-0

>  <r_i_glide_rewards>  (1) 
-2.1169023335336261

>  <r_lp_Energy>  (1) 
31.713768999999999

>  <s_epik_cmdline>  (1) 
J2VwaWtfcHl0aG9uJywgJy1waHQnLCAnMS4wJywgJy1waCcsICc3LjQnLCAnLXRuJywgJzgnLCAnLW1hJywgJzUwMCcsICctaW1hZScsICc8aW5maWxlLm1hZT4nLCAnLW9tYWUnLCAnPG91dGZpbGUubWFlPic=

>  <s_epik_input>  (1) 
W09IXVtDSDJdW0NIMl1jMVtjSF1bY0hdYyhbY0hdW2NIXTEpW0NASF0oW0NIMl0yKVtOSF1bQ0BIXShDMjMpW0NIXT1DKFtDSF09MylbQ0BIXTRbQ0BASF0oW0NAQEhdNDUpW0NIMl1bQ0gyXVtDSDJdNQ==

>  <s_glide_docking_method>  (1) 
confgen

>  <s_i_glide_gridfile>  (1) 
gpcr_drd2_6luq_protein_autoprepared_prepared

>  <s_lp_Force_Field>  (1) 
S-OPLS

>  <s_lp_Variant>  (1) 
DiffSBDD_83_num_sample_100-3

>  <s_m_source_file>  (1) 
generated__ligand_DiffSBDD_2026-05-06_prepared.sdf

>  <GenAI_Model>  (1) 
DiffSBDD

>  <Protein>  (1) 
generic_title2

$$$$
DiffSBDD_51_num_sample_100
     RDKit          3D

  0  0  0  0  0  0  0  0  0  0999 V3000
M  V30 BEGIN CTAB
M  V30 COUNTS 33 34 0 0 1
M  V30 BEGIN ATOM
M  V30 1 C 10.970391 7.833930 -8.153227 0
M  V30 2 C 10.369232 6.966235 -7.025779 0
M  V30 3 C 9.015884 6.327819 -7.411434 0
M  V30 4 O 9.834839 4.442270 -8.691667 0
M  V30 5 C 12.072158 9.369302 -6.450417 0
M  V30 6 C 8.563115 4.276706 -12.698312 0
M  V30 7 N 9.022340 4.091269 -11.303798 0 CHG=1
M  V30 8 C 7.514780 5.306703 -12.135689 0
M  V30 9 C 12.274721 8.510049 -7.709983 0
M  V30 10 C 8.283145 5.103628 -10.887226 0
M  V30 11 C 10.173291 7.819002 -5.760804 0
M  V30 12 N 8.234839 5.769301 -9.712379 0
M  V30 13 C 11.434839 8.566905 -5.303283 0
M  V30 14 C 9.090058 5.404822 -8.627150 0
M  V30 15 H 11.173658 7.229569 -9.037644 0
M  V30 16 H 10.250574 8.594998 -8.458171 0
M  V30 17 H 11.076617 6.168395 -6.791148 0
M  V30 18 H 8.303744 7.122762 -7.598341 0
M  V30 19 H 8.609375 5.769303 -6.570823 0
M  V30 20 H 13.025803 9.787061 -6.125681 0
M  V30 21 H 11.434840 10.219204 -6.691666 0
M  V30 22 H 9.332907 4.720834 -13.330494 0
M  V30 23 H 8.126164 3.376271 -13.130943 0
M  V30 24 H 6.490198 4.939040 -12.065206 0
M  V30 25 H 7.602970 6.321650 -12.525030 0
M  V30 26 H 13.029380 7.749372 -7.518932 0
M  V30 27 H 12.659933 9.118177 -8.527704 0
M  V30 28 H 9.374970 8.543132 -5.930858 0
M  V30 29 H 9.834841 7.160804 -4.963162 0
M  V30 30 H 9.946598 3.838198 -10.980377 0
M  V30 31 H 12.143462 7.858786 -4.877898 0
M  V30 32 H 11.180535 9.243668 -4.486856 0
M  V30 33 H 7.592253 6.589696 -9.671876 0
M  V30 END ATOM
M  V30 BEGIN BOND
M  V30 1 1 2 1
M  V30 2 1 3 2
M  V30 3 1 7 6
M  V30 4 1 8 6
M  V30 5 1 9 1
M  V30 6 1 9 5
M  V30 7 2 10 7
M  V30 8 1 10 8
M  V30 9 1 11 2
M  V30 10 1 12 10
M  V30 11 1 13 5
M  V30 12 1 13 11
M  V30 13 1 14 3
M  V30 14 2 14 4
M  V30 15 1 14 12
M  V30 16 1 15 1
M  V30 17 1 16 1
M  V30 18 1 17 2
M  V30 19 1 18 3
M  V30 20 1 19 3
M  V30 21 1 20 5
M  V30 22 1 21 5
M  V30 23 1 22 6
M  V30 24 1 23 6
M  V30 25 1 24 8
M  V30 26 1 25 8
M  V30 27 1 26 9
M  V30 28 1 27 9
M  V30 29 1 28 11
M  V30 30 1 29 11
M  V30 31 1 30 7
M  V30 32 1 31 13
M  V30 33 1 32 13
M  V30 34 1 33 12
M  V30 END BOND
M  V30 END CTAB
M  END
>  <i_epik_Tot_Q>  (1) 
1

>  <i_epik_Tot_abs_Q>  (1) 
1

>  <i_i_glide_confnum>  (1) 
3

>  <i_i_glide_lignum>  (1) 
96

>  <i_i_glide_posenum>  (1) 
281

>  <i_i_glide_rotatable_bonds>  (1) 
4

>  <i_lp_mmshare_version>  (1) 
72125

>  <i_m_source_file_index>  (1) 
52

>  <i_f3d_flags>  (1) 
0

>  <num_sample>  (1) 
100

>  <b_lp_Chiralities_Consistent>  (1) 
1

>  <r_epik_Charging_Adjusted_Penalty>  (1) 
0.0012355626880465899

>  <r_epik_Ionization_Penalty>  (1) 
0.0012355626882857627

>  <r_epik_Ionization_Penalty_Charging>  (1) 
0.0012355626880465899

>  <r_epik_Ionization_Penalty_Neutral>  (1) 
2.3917293134818898e-13

>  <r_epik_State_Penalty>  (1) 
-0

>  <r_glide_ring_energy>  (1) 
0

>  <r_i_docking_score>  (1) 
-5.2688489111148584

>  <r_i_glide_ecoul>  (1) 
-8.5694880845883237

>  <r_i_glide_eff_state_penalty>  (1) 
-0

>  <r_i_glide_einternal>  (1) 
0.94460082732868478

>  <r_i_glide_emodel>  (1) 
-31.860400883307435

>  <r_i_glide_emodel_strain>  (1) 
0.00098374929332578631

>  <r_i_glide_energy>  (1) 
-21.11118639084275

>  <r_i_glide_erotb>  (1) 
0.84972591180096124

>  <r_i_glide_esite>  (1) 
-0.15050439521702508

>  <r_i_glide_evdw>  (1) 
-12.541698306254426

>  <r_i_glide_gscore>  (1) 
-5.2688489111148584

>  <r_i_glide_gscore_strain>  (1) 
0

>  <r_i_glide_hbond>  (1) 
-0.15398557612660807

>  <r_i_glide_ligand_efficiency>  (1) 
-0.37634635079391848

>  <r_i_glide_ligand_efficiency_ln>  (1) 
-1.4478609249258272

>  <r_i_glide_ligand_efficiency_sa>  (1) 
-0.90704824601654011

>  <r_i_glide_lipo>  (1) 
-1.2938483519756134

>  <r_i_glide_metal>  (1) 
-0

>  <r_i_glide_rewards>  (1) 
-2.607728371595603

>  <r_lp_Energy>  (1) 
15.798371999999999

>  <r_lp_tautomer_probability>  (1) 
1

>  <s_epik_Chemistry_Notes>  (1) 
This compound has an imine and may undergo hydrolysis.

>  <s_epik_cmdline>  (1) 
J2VwaWtfcHl0aG9uJywgJy1waHQnLCAnMS4wJywgJy1waCcsICc3LjQnLCAnLXRuJywgJzgnLCAnLW1hJywgJzUwMCcsICctaW1hZScsICc8aW5maWxlLm1hZT4nLCAnLW9tYWUnLCAnPG91dGZpbGUubWFlPic=

>  <s_epik_input>  (1) 
W0NIMl0xW0NIMl1bQ0gyXVtDSDJdW0NIMl1bQ0hdMVtDSDJdQyg9TylbTkhdQzI9TltDSDJdW0NIMl0y

>  <s_glide_docking_method>  (1) 
confgen

>  <s_i_glide_gridfile>  (1) 
gpcr_drd2_6luq_protein_autoprepared_prepared

>  <s_lp_Force_Field>  (1) 
S-OPLS

>  <s_lp_Variant>  (1) 
DiffSBDD_51_num_sample_100-1

>  <s_m_source_file>  (1) 
generated__ligand_DiffSBDD_2026-05-06_prepared.sdf

>  <GenAI_Model>  (1) 
DiffSBDD

>  <Protein>  (1) 
generic_title2

$$$$
DiffSBDD_36_num_sample_100
     RDKit          3D

  0  0  0  0  0  0  0  0  0  0999 V3000
M  V30 BEGIN CTAB
M  V30 COUNTS 102 107 0 0 1
M  V30 BEGIN ATOM
M  V30 1 C 11.261209 6.094289 -6.736039 0
M  V30 2 O 6.634816 1.824549 -15.252203 0
M  V30 3 C 8.265359 6.593975 -12.665777 0
M  V30 4 C 4.786465 7.903339 -22.522205 0
M  V30 5 C 9.043180 4.370289 -18.313531 0 CFG=1
M  V30 6 O 6.336569 5.494957 -22.145891 0
M  V30 7 C 5.988718 4.660594 -13.213104 0
M  V30 8 C 9.367455 5.908092 -10.008929 0
M  V30 9 C 8.280226 5.057610 -10.639964 0 CFG=1
M  V30 10 C 10.132595 6.751080 -10.969002 0 CFG=1
M  V30 11 C 6.682846 -0.124561 -14.005183 0
M  V30 12 C 6.066046 4.220721 -10.691808 0
M  V30 13 C 9.779431 6.453438 -12.431791 0
M  V30 14 C 10.648726 6.664329 -7.981839 0
M  V30 15 S 10.598614 5.143735 -20.446872 0
M  V30 16 C 11.013099 7.930878 -8.357546 0
M  V30 17 C 9.290210 -0.426367 -17.837633 0
M  V30 18 C 10.499436 8.692817 -9.491458 0
M  V30 19 C 8.428253 6.538812 -21.501267 0
M  V30 20 C 6.850712 0.456497 -15.399550 0 CFG=2
M  V30 21 O 6.827483 5.085944 -19.242764 0
M  V30 22 C 5.010503 7.433092 -16.813711 0
M  V30 23 C 10.463595 4.515035 -18.816378 0
M  V30 24 C 6.243440 7.939409 -22.125397 0
M  V30 25 C 6.095203 5.451869 -18.079478 0
M  V30 26 C 7.179029 4.576101 -9.711924 0
M  V30 27 O 9.889851 -0.098143 -19.094681 0
M  V30 28 C 3.542915 7.277152 -17.229938 0
M  V30 29 C 6.185424 5.296911 -11.793913 0 CFG=2
M  V30 30 C 5.150174 6.390046 -11.493331 0
M  V30 31 S 7.086505 9.363362 -21.891337 0
M  V30 32 O 8.150856 0.194191 -15.837176 0
M  V30 33 C 6.002494 6.975972 -17.895548 0
M  V30 34 C 9.004581 2.054519 -17.172474 0
M  V30 35 C 11.549173 4.214662 -18.085307 0
M  V30 36 N 7.516150 5.916116 -11.565504 0 CFG=2 CHG=1
M  V30 37 C 6.417009 2.161921 -13.883708 0 CFG=1
M  V30 38 C 8.231067 5.328258 -19.227617 0 CFG=2
M  V30 39 C 6.942507 6.547552 -21.942168 0
M  V30 40 O 10.709943 -0.234458 -17.853256 0
M  V30 41 C 8.568721 2.898068 -18.383444 0
M  V30 42 O 8.186697 3.783944 -13.750323 0
M  V30 43 C 8.807506 5.293321 -20.664507 0 CFG=2
M  V30 44 C 10.058282 8.168509 -10.634952 0
M  V30 45 C 9.641410 5.856741 -8.691813 0
M  V30 46 C 8.410058 0.623786 -17.172380 0 CFG=1
M  V30 47 C 7.096360 1.029439 -13.123452 0
M  V30 48 C 6.985462 3.553876 -13.627419 0
M  V30 49 H 11.436251 5.030793 -6.875362 0
M  V30 50 H 12.234737 6.540676 -6.611948 0
M  V30 51 H 10.658215 6.275754 -5.846105 0
M  V30 52 H 7.983005 7.647467 -12.647100 0
M  V30 53 H 8.015647 6.253381 -13.669332 0
M  V30 54 H 4.202290 7.399736 -21.750517 0
M  V30 55 H 4.384821 8.908930 -22.657454 0
M  V30 56 H 8.974778 4.729689 -17.285863 0
M  V30 57 H 6.013450 5.426537 -13.989098 0
M  V30 58 H 8.726227 4.211809 -11.167033 0
M  V30 59 H 11.191411 6.569373 -10.879218 0
M  V30 60 H 5.629683 -0.356866 -13.844893 0
M  V30 61 H 7.260436 -1.029848 -13.891648 0
M  V30 62 H 5.078881 4.162672 -10.239102 0
M  V30 63 H 6.234344 3.227243 -11.092027 0
M  V30 64 H 10.379786 7.074679 -13.090762 0
M  V30 65 H 10.083143 5.433155 -12.671552 0
M  V30 66 H 11.714550 8.442250 -7.714514 0
M  V30 67 H 8.963921 -1.462390 -17.763558 0
M  V30 68 H 10.483672 9.764651 -9.401993 0
M  V30 69 H 8.694548 7.413804 -20.912397 0
M  V30 70 H 9.037873 6.565928 -22.404415 0
M  V30 71 H 6.120339 0.021588 -16.085247 0
M  V30 72 H 5.197279 6.906943 -15.876952 0
M  V30 73 H 5.195281 8.488277 -16.607834 0
M  V30 74 H 5.092592 5.052365 -18.223609 0
M  V30 75 H 6.509179 4.973991 -17.190497 0
M  V30 76 H 6.891394 5.424641 -9.093814 0
M  V30 77 H 7.434220 3.770279 -9.035971 0
M  V30 78 H 2.884467 7.790454 -16.529975 0
M  V30 79 H 3.365734 7.709799 -18.214974 0
M  V30 80 H 3.247700 6.228719 -17.261031 0
M  V30 81 H 4.234300 5.966092 -11.090729 0
M  V30 82 H 5.434825 7.061605 -10.691957 0
M  V30 83 H 4.981157 7.015752 -12.367527 0
M  V30 84 H 4.671401 7.359749 -23.460329 0
M  V30 85 H 6.983440 7.356995 -17.623617 0
M  V30 86 H 5.740929 7.447988 -18.843752 0
M  V30 87 H 10.089126 2.019870 -17.093010 0
M  V30 88 H 8.675887 2.581677 -16.278572 0
M  V30 89 H 11.456377 3.838127 -17.076405 0
M  V30 90 H 12.543354 4.341935 -18.487244 0
M  V30 91 H 5.354165 2.135417 -13.651663 0
M  V30 92 H 8.417958 6.339279 -18.868380 0
M  V30 93 H 7.479763 2.874057 -18.415758 0
M  V30 94 H 8.907459 2.430293 -19.308691 0
M  V30 95 H 4.986718 4.235784 -13.270145 0
M  V30 96 H 8.484702 4.378667 -21.164829 0
M  V30 97 H 9.687673 8.819884 -11.412460 0
M  V30 98 H 9.075606 5.157096 -8.096101 0
M  V30 99 H 7.477934 0.624748 -17.738880 0
M  V30 100 H 8.182925 1.137609 -13.092567 0
M  V30 101 H 6.717382 0.917131 -12.109683 0
M  V30 102 H 7.302296 6.688419 -10.935002 0
M  V30 END ATOM
M  V30 BEGIN BOND
M  V30 1 1 9 8
M  V30 2 1 10 8
M  V30 3 1 13 3
M  V30 4 1 13 10
M  V30 5 1 14 1
M  V30 6 2 16 14
M  V30 7 1 18 16
M  V30 8 1 20 2
M  V30 9 1 20 11
M  V30 10 1 23 5
M  V30 11 1 23 15
M  V30 12 1 24 4
M  V30 13 1 25 21
M  V30 14 1 26 9
M  V30 15 1 26 12
M  V30 16 1 27 17
M  V30 17 1 28 22
M  V30 18 1 29 7 CFG=3
M  V30 19 1 29 12
M  V30 20 1 30 29
M  V30 21 2 31 24
M  V30 22 1 32 20
M  V30 23 1 33 22
M  V30 24 1 33 25
M  V30 25 2 35 23
M  V30 26 1 36 3
M  V30 27 1 36 9
M  V30 28 1 36 29
M  V30 29 1 37 2
M  V30 30 1 38 5
M  V30 31 1 38 21
M  V30 32 2 39 6
M  V30 33 1 39 19
M  V30 34 1 39 24
M  V30 35 1 40 17
M  V30 36 1 40 27
M  V30 37 1 41 5
M  V30 38 1 41 34
M  V30 39 1 43 15
M  V30 40 1 43 19
M  V30 41 1 43 38
M  V30 42 1 44 10
M  V30 43 2 44 18
M  V30 44 2 45 8
M  V30 45 1 45 14
M  V30 46 1 46 17
M  V30 47 1 46 32
M  V30 48 1 46 34
M  V30 49 1 47 11
M  V30 50 1 47 37
M  V30 51 1 48 7
M  V30 52 1 48 37
M  V30 53 2 48 42
M  V30 54 1 49 1
M  V30 55 1 50 1
M  V30 56 1 51 1
M  V30 57 1 52 3
M  V30 58 1 53 3
M  V30 59 1 54 4
M  V30 60 1 55 4
M  V30 61 1 5 56 CFG=1
M  V30 62 1 57 7
M  V30 63 1 9 58 CFG=3
M  V30 64 1 10 59 CFG=3
M  V30 65 1 60 11
M  V30 66 1 61 11
M  V30 67 1 62 12
M  V30 68 1 63 12
M  V30 69 1 64 13
M  V30 70 1 65 13
M  V30 71 1 66 16
M  V30 72 1 67 17
M  V30 73 1 68 18
M  V30 74 1 69 19
M  V30 75 1 70 19
M  V30 76 1 20 71 CFG=3
M  V30 77 1 72 22
M  V30 78 1 73 22
M  V30 79 1 74 25
M  V30 80 1 75 25
M  V30 81 1 76 26
M  V30 82 1 77 26
M  V30 83 1 78 28
M  V30 84 1 79 28
M  V30 85 1 80 28
M  V30 86 1 81 30
M  V30 87 1 82 30
M  V30 88 1 83 30
M  V30 89 1 84 4
M  V30 90 1 85 33
M  V30 91 1 86 33
M  V30 92 1 87 34
M  V30 93 1 88 34
M  V30 94 1 89 35
M  V30 95 1 90 35
M  V30 96 1 37 91 CFG=3
M  V30 97 1 38 92 CFG=1
M  V30 98 1 93 41
M  V30 99 1 94 41
M  V30 100 1 95 7
M  V30 101 1 43 96 CFG=3
M  V30 102 1 97 44
M  V30 103 1 98 45
M  V30 104 1 46 99 CFG=3
M  V30 105 1 100 47
M  V30 106 1 101 47
M  V30 107 1 36 102 CFG=1
M  V30 END BOND
M  V30 END CTAB
M  END
>  <i_epik_Tot_Q>  (1) 
1

>  <i_epik_Tot_abs_Q>  (1) 
1

>  <i_i_glide_confnum>  (1) 
11927

>  <i_i_glide_lignum>  (1) 
66

>  <i_i_glide_posenum>  (1) 
51

>  <i_i_glide_rotatable_bonds>  (1) 
16

>  <i_lp_mmshare_version>  (1) 
72125

>  <i_m_source_file_index>  (1) 
37

>  <i_f3d_flags>  (1) 
0

>  <num_sample>  (1) 
100

>  <b_lp_Chiralities_Consistent>  (1) 
1

>  <r_epik_Charging_Adjusted_Penalty>  (1) 
0.91210119875661555

>  <r_epik_Ionization_Penalty>  (1) 
0.45605060116919061

>  <r_epik_Ionization_Penalty_Charging>  (1) 
0.45605059937830777

>  <r_epik_Ionization_Penalty_Neutral>  (1) 
1.7908828364046034e-09

>  <r_epik_State_Penalty>  (1) 
0.45605059937830777

>  <r_glide_ring_energy>  (1) 
0.9081224923352812

>  <r_i_docking_score>  (1) 
-5.2633169407964582

>  <r_i_glide_ecoul>  (1) 
-4.0100794667422397

>  <r_i_glide_eff_state_penalty>  (1) 
0.45605059937830777

>  <r_i_glide_einternal>  (1) 
10.03896855373052

>  <r_i_glide_emodel>  (1) 
-45.180196692874787

>  <r_i_glide_emodel_strain>  (1) 
0.7079696623874554

>  <r_i_glide_energy>  (1) 
-39.979346515567116

>  <r_i_glide_erotb>  (1) 
0.43548923687221863

>  <r_i_glide_esite>  (1) 
-0.080997604817666505

>  <r_i_glide_evdw>  (1) 
-35.969267048824875

>  <r_i_glide_gscore>  (1) 
-5.7193675401747663

>  <r_i_glide_gscore_strain>  (1) 
0

>  <r_i_glide_hbond>  (1) 
-0.20000000000000001

>  <r_i_glide_ligand_efficiency>  (1) 
-0.10965243626659288

>  <r_i_glide_ligand_efficiency_ln>  (1) 
-1.0804967664053522

>  <r_i_glide_ligand_efficiency_sa>  (1) 
-0.39850339998847939

>  <r_i_glide_lipo>  (1) 
-2.0138801990680877

>  <r_i_glide_metal>  (1) 
-0

>  <r_i_glide_rewards>  (1) 
-1.460003700708651

>  <r_lp_Energy>  (1) 
33.757401999999999

>  <r_lp_tautomer_probability>  (1) 
0.99994996000200076

>  <s_epik_Chemistry_Notes>  (1) 
This compound contains an acetal/aminal-like group ( X-CH(R)-Y where X, Y are N, S, or O) that may be acid/base labile, releasing an aldehyde.

>  <s_epik_cmdline>  (1) 
J2VwaWtfcHl0aG9uJywgJy1waHQnLCAnMS4wJywgJy1waCcsICc3LjQnLCAnLXRuJywgJzgnLCAnLW1hJywgJzUwMCcsICctaW1hZScsICc8aW5maWxlLm1hZT4nLCAnLW9tYWUnLCAnPG91dGZpbGUubWFlPic=

>  <s_epik_input>  (1) 
W0NIM11DKFtDSF0xKT1bQ0hdW0NIXT1bQ0hdW0NAQEhdMltDSDJdW0NIMl1OKFtDQEhdM0M9MTIpW0NAXShbQ0gzXSkoW0NIMl1bQ0gyXTMpL1tDSF09QyhbT0hdKS9bQ0BIXShbQ0gyXVtDSDJdNClPW0NASF00T1tDQEhdKFtDSF01T081KVtDSDJdW0NIMl1bQ0BIXTZDKD1bQ0gyXSlTW0NASF0oW0NIMl1DKD1PKUMoPVtDSDJdKVtTSF0pW0NASF02T1tDSDJdW0NIMl1bQ0gyXVtDSDNd

>  <s_glide_docking_method>  (1) 
confgen

>  <s_i_glide_gridfile>  (1) 
gpcr_drd2_6luq_protein_autoprepared_prepared

>  <s_lp_Force_Field>  (1) 
S-OPLS

>  <s_lp_Variant>  (1) 
DiffSBDD_36_num_sample_100-3

>  <s_m_source_file>  (1) 
generated__ligand_DiffSBDD_2026-05-06_prepared.sdf

>  <GenAI_Model>  (1) 
DiffSBDD

>  <Protein>  (1) 
generic_title2

$$$$
DiffSBDD_47_num_sample_100
     RDKit          3D

  0  0  0  0  0  0  0  0  0  0999 V3000
M  V30 BEGIN CTAB
M  V30 COUNTS 61 67 0 0 1
M  V30 BEGIN ATOM
M  V30 1 C 10.829797 7.297444 -8.246861 0 CFG=1
M  V30 2 N 7.890619 4.688006 -10.184607 0
M  V30 3 N 5.356840 -1.359055 -18.225805 0
M  V30 4 C 6.026516 7.749174 -15.094272 0
M  V30 5 C 6.909200 1.830021 -15.502826 0
M  V30 6 C 9.732327 6.518598 -10.358987 0
M  V30 7 C 10.624654 7.325627 -9.718741 0
M  V30 8 C 4.840326 -0.483867 -19.094646 0
M  V30 9 N 5.416780 0.702564 -19.134046 0
M  V30 10 N 8.234790 3.706346 -14.530532 0 CHG=1
M  V30 11 N 7.740355 5.527702 -12.387947 0
M  V30 12 N 7.891102 1.459202 -16.527634 0
M  V30 13 N 9.040113 5.788156 -12.509946 0
M  V30 14 C 6.390984 -0.553639 -17.672057 0
M  V30 15 C 6.422246 0.680135 -18.218487 0
M  V30 16 C 9.036043 5.479540 -8.274467 0
M  V30 17 C 7.559613 2.420695 -14.244826 0
M  V30 18 N 7.270946 -0.948848 -16.691670 0
M  V30 19 C 7.228142 4.744408 -11.392885 0
M  V30 20 C 7.385674 4.882738 -14.824047 0
M  V30 21 O 6.201777 4.089692 -11.565887 0
M  V30 22 O 5.584331 5.969238 -13.446417 0
M  V30 23 F 11.396988 8.155918 -10.441991 0
M  V30 24 C 7.350257 1.781687 -17.893836 0 CFG=2
M  V30 25 C 8.508374 1.899446 -18.894727 0
M  V30 26 C 8.309037 0.025292 -16.299965 0
M  V30 27 C 9.703062 6.565497 -11.775582 0
M  V30 28 C 6.991549 5.729599 -13.612170 0 CFG=1
M  V30 29 C 6.382769 7.103238 -13.769505 0 CFG=1
M  V30 30 C 9.986423 6.303027 -7.484686 0 CFG=2
M  V30 31 C 8.890231 5.555712 -9.613449 0
M  V30 32 C 11.147296 8.563783 -7.490533 0
M  V30 33 C 9.838884 7.808530 -7.293893 0 CFG=1
M  V30 34 H 7.477509 4.056100 -9.515524 0
M  V30 35 H 6.756757 8.518221 -15.345937 0
M  V30 36 H 5.999130 7.017462 -15.901041 0
M  V30 37 H 5.040273 8.209194 -15.029164 0
M  V30 38 H 6.276975 0.981193 -15.236619 0
M  V30 39 H 6.234899 2.569422 -15.905381 0
M  V30 40 H 4.001859 -0.733092 -19.727490 0
M  V30 41 H 8.816572 3.538014 -15.339760 0
M  V30 42 H 5.158954 1.476006 -19.728867 0
M  V30 43 H 8.420127 4.791127 -7.715677 0
M  V30 44 H 8.286427 1.721501 -13.829787 0
M  V30 45 H 6.800401 2.562678 -13.478116 0
M  V30 46 H 7.271243 -1.893531 -16.313247 0
M  V30 47 H 6.494092 4.617751 -15.389178 0
M  V30 48 H 7.974481 5.524706 -15.480051 0
M  V30 49 H 6.821936 2.735862 -17.887578 0
M  V30 50 H 8.136528 2.126158 -19.894348 0
M  V30 51 H 9.193474 2.698229 -18.609441 0
M  V30 52 H 9.081228 0.973950 -18.961732 0
M  V30 53 H 9.197448 -0.179897 -16.897671 0
M  V30 54 H 8.586103 -0.138786 -15.258404 0
M  V30 55 H 10.352424 7.319572 -12.217998 0
M  V30 56 H 6.507027 7.769335 -12.923909 0
M  V30 57 H 10.487649 5.754988 -6.692589 0
M  V30 58 H 11.211949 9.439348 -8.119276 0
M  V30 59 H 11.890450 8.497105 -6.699525 0
M  V30 60 H 8.944530 8.272154 -7.705514 0
M  V30 61 H 8.827987 3.952952 -13.748385 0
M  V30 END ATOM
M  V30 BEGIN BOND
M  V30 1 1 7 1
M  V30 2 2 7 6
M  V30 3 2 8 3
M  V30 4 1 9 8
M  V30 5 1 12 5
M  V30 6 1 13 11
M  V30 7 1 14 3
M  V30 8 1 15 9
M  V30 9 2 15 14
M  V30 10 1 17 5
M  V30 11 1 17 10
M  V30 12 1 18 14
M  V30 13 1 19 2
M  V30 14 1 19 11
M  V30 15 1 20 10
M  V30 16 2 21 19
M  V30 17 1 23 7
M  V30 18 1 24 12
M  V30 19 1 24 15
M  V30 20 1 25 24
M  V30 21 1 26 12
M  V30 22 1 26 18
M  V30 23 1 27 6
M  V30 24 2 27 13
M  V30 25 1 28 11
M  V30 26 1 28 20 CFG=3
M  V30 27 1 28 22
M  V30 28 1 29 4
M  V30 29 1 29 22
M  V30 30 1 29 28
M  V30 31 1 30 1
M  V30 32 1 30 16
M  V30 33 1 31 2
M  V30 34 1 31 6
M  V30 35 2 31 16
M  V30 36 1 1 32 CFG=1
M  V30 37 1 33 1
M  V30 38 1 33 30
M  V30 39 1 33 32
M  V30 40 1 34 2
M  V30 41 1 35 4
M  V30 42 1 36 4
M  V30 43 1 37 4
M  V30 44 1 38 5
M  V30 45 1 39 5
M  V30 46 1 40 8
M  V30 47 1 41 10
M  V30 48 1 42 9
M  V30 49 1 43 16
M  V30 50 1 44 17
M  V30 51 1 45 17
M  V30 52 1 46 18
M  V30 53 1 47 20
M  V30 54 1 48 20
M  V30 55 1 24 49 CFG=1
M  V30 56 1 50 25
M  V30 57 1 51 25
M  V30 58 1 52 25
M  V30 59 1 53 26
M  V30 60 1 54 26
M  V30 61 1 55 27
M  V30 62 1 29 56 CFG=1
M  V30 63 1 30 57 CFG=1
M  V30 64 1 58 32
M  V30 65 1 59 32
M  V30 66 1 33 60 CFG=3
M  V30 67 1 61 10
M  V30 END BOND
M  V30 END CTAB
M  END
>  <i_epik_Tot_Q>  (1) 
1

>  <i_epik_Tot_abs_Q>  (1) 
1

>  <i_i_glide_confnum>  (1) 
62

>  <i_i_glide_lignum>  (1) 
87

>  <i_i_glide_posenum>  (1) 
384

>  <i_i_glide_rotatable_bonds>  (1) 
6

>  <i_lp_mmshare_version>  (1) 
72125

>  <i_m_source_file_index>  (1) 
48

>  <i_f3d_flags>  (1) 
2

>  <num_sample>  (1) 
100

>  <b_lp_Chiralities_Consistent>  (1) 
0

>  <r_epik_Charging_Adjusted_Penalty>  (1) 
0.25375292515256775

>  <r_epik_Ionization_Penalty>  (1) 
0.18021772770564537

>  <r_epik_Ionization_Penalty_Charging>  (1) 
0.12840531132269745

>  <r_epik_Ionization_Penalty_Neutral>  (1) 
0.05181241638294791

>  <r_epik_State_Penalty>  (1) 
0.12534761382987034

>  <r_glide_ring_energy>  (1) 
0

>  <r_i_docking_score>  (1) 
-5.2543395266666248

>  <r_i_glide_ecoul>  (1) 
-4.7750337487416648

>  <r_i_glide_eff_state_penalty>  (1) 
0.12534761382987034

>  <r_i_glide_einternal>  (1) 
5.4591955289771086

>  <r_i_glide_emodel>  (1) 
-54.193198539361504

>  <r_i_glide_emodel_strain>  (1) 
0.11317455063232273

>  <r_i_glide_energy>  (1) 
-41.969123597799218

>  <r_i_glide_erotb>  (1) 
0.58091350073026182

>  <r_i_glide_esite>  (1) 
-0.13325809943973957

>  <r_i_glide_evdw>  (1) 
-37.194089849057555

>  <r_i_glide_gscore>  (1) 
-5.379687140496495

>  <r_i_glide_gscore_strain>  (1) 
0

>  <r_i_glide_hbond>  (1) 
-0.31802461760226525

>  <r_i_glide_ligand_efficiency>  (1) 
-0.15922240989898864

>  <r_i_glide_ligand_efficiency_ln>  (1) 
-1.1685379052165961

>  <r_i_glide_ligand_efficiency_sa>  (1) 
-0.51071134585567335

>  <r_i_glide_lipo>  (1) 
-1.1666608495022479

>  <r_i_glide_metal>  (1) 
-0

>  <r_i_glide_rewards>  (1) 
-1.7666975199183761

>  <r_lp_Energy>  (1) 
70.574212000000003

>  <r_lp_tautomer_probability>  (1) 
0.94542902837213583

>  <s_epik_Chemistry_Notes>  (1) 
This compound has an imine and may undergo hydrolysis. This compound contains an acetal/aminal-like group ( X-CH(R)-Y where X, Y are N, S, or O) that may be acid/base labile, releasing an aldehyde.

>  <s_epik_cmdline>  (1) 
J2VwaWtfcHl0aG9uJywgJy1waHQnLCAnMS4wJywgJy1waCcsICc3LjQnLCAnLXRuJywgJzgnLCAnLW1hJywgJzUwMCcsICctaW1hZScsICc8aW5maWxlLm1hZT4nLCAnLW9tYWUnLCAnPG91dGZpbGUubWFlPic=

>  <s_epik_input>  (1) 
W0NIMl0xW0NAQEhdMltDQEhdKEMxMjMpW0NIXT1DNEMoPUMzRilbQ0hdPU5OKEMoPU8pW05IXTQpW0NAXTUoT1tDQEBIXTVbQ0gzXSlbQ0gyXVtOSF1bQ0gyXVtDSDJdTihbQ0gyXVtOSF02KVtDQEBIXShbQ0gzXSlbQ0BIXShDNjcpTj1bQ0hdTj03

>  <s_glide_docking_method>  (1) 
confgen

>  <s_i_glide_gridfile>  (1) 
gpcr_drd2_6luq_protein_autoprepared_prepared

>  <s_lp_Force_Field>  (1) 
S-OPLS

>  <s_lp_Variant>  (1) 
DiffSBDD_47_num_sample_100-1

>  <s_m_source_file>  (1) 
generated__ligand_DiffSBDD_2026-05-06_prepared.sdf

>  <GenAI_Model>  (1) 
DiffSBDD

>  <Protein>  (1) 
generic_title2

$$$$
DiffSBDD_74_num_sample_100
     RDKit          3D

  0  0  0  0  0  0  0  0  0  0999 V3000
M  V30 BEGIN CTAB
M  V30 COUNTS 50 51 0 0 1
M  V30 BEGIN ATOM
M  V30 1 C 5.913252 4.130808 -20.012015 0
M  V30 2 C 9.370162 6.784676 -11.546656 0
M  V30 3 F 7.824276 2.745874 -14.389638 0
M  V30 4 C 5.877415 7.097765 -20.076595 0 CFG=1
M  V30 5 O 5.940612 6.373673 -11.742037 0
M  V30 6 C 8.878754 5.294929 -13.536335 0
M  V30 7 C 7.478615 4.445568 -18.094293 0
M  V30 8 C 5.882241 6.306591 -18.743114 0 CFG=1
M  V30 9 F 5.442537 9.224542 -21.022819 0
M  V30 10 C 5.988056 4.889453 -21.343988 0
M  V30 11 F 7.264874 5.049662 -21.694940 0
M  V30 12 F 4.635070 6.169598 -18.296215 0
M  V30 13 C 5.309474 6.261063 -21.240819 0
M  V30 14 C 7.942424 5.080064 -14.749471 0 CFG=2
M  V30 15 C 8.256003 6.184479 -12.432641 0 CFG=1
M  V30 16 O 7.427106 5.369304 -10.269849 0
M  V30 17 C 5.154261 8.457810 -19.971368 0
M  V30 18 C 7.071366 5.535226 -11.625019 0
M  V30 19 O 7.998950 3.332971 -18.177365 0
M  V30 20 C 6.029701 3.952030 -13.449461 0
M  V30 21 F 5.378897 4.173060 -22.288872 0
M  V30 22 N 6.463480 4.954456 -18.930347 0
M  V30 23 C 7.068392 3.830670 -14.568328 0 CFG=2
M  V30 24 C 6.623370 4.114354 -12.041626 0
M  V30 25 O 7.809260 5.359917 -17.157874 0
M  V30 26 F 3.834875 8.307393 -19.894519 0
M  V30 27 C 8.703548 5.036264 -16.091024 0
M  V30 28 H 6.428111 3.173822 -20.112001 0
M  V30 29 H 4.876282 3.890844 -19.775046 0
M  V30 30 H 9.899308 6.008218 -10.994182 0
M  V30 31 H 10.105070 7.323263 -12.145501 0
M  V30 32 H 8.966778 7.497235 -10.826354 0
M  V30 33 H 6.922437 7.310163 -20.308155 0
M  V30 34 H 6.115207 7.160095 -11.238384 0
M  V30 35 H 9.225620 4.348952 -13.119239 0
M  V30 36 H 9.792023 5.769312 -13.891352 0
M  V30 37 H 6.374932 6.934269 -18.001447 0
M  V30 38 H 5.417929 6.803679 -22.180125 0
M  V30 39 H 4.239021 6.114196 -21.096574 0
M  V30 40 H 7.281123 5.945317 -14.817007 0
M  V30 41 H 7.854157 7.053013 -12.956797 0
M  V30 42 H 7.434793 6.241520 -9.868574 0
M  V30 43 H 5.434826 9.016642 -19.083436 0
M  V30 44 H 5.433847 3.039348 -13.456507 0
M  V30 45 H 5.329305 4.757574 -13.671208 0
M  V30 46 H 6.534170 3.635457 -15.491664 0
M  V30 47 H 7.446937 3.411077 -11.915364 0
M  V30 48 H 5.857280 3.783475 -11.336970 0
M  V30 49 H 9.490281 5.789971 -16.096942 0
M  V30 50 H 9.201708 4.074446 -16.220214 0
M  V30 END ATOM
M  V30 BEGIN BOND
M  V30 1 1 8 4
M  V30 2 1 10 1
M  V30 3 1 11 10
M  V30 4 1 12 8
M  V30 5 1 13 4
M  V30 6 1 13 10
M  V30 7 1 14 6
M  V30 8 1 15 2
M  V30 9 1 15 6
M  V30 10 1 17 4
M  V30 11 1 17 9
M  V30 12 1 18 5
M  V30 13 1 18 15
M  V30 14 1 18 16
M  V30 15 2 19 7
M  V30 16 1 21 10
M  V30 17 1 22 1
M  V30 18 1 22 7
M  V30 19 1 22 8
M  V30 20 1 23 3
M  V30 21 1 23 14
M  V30 22 1 23 20
M  V30 23 1 24 18
M  V30 24 1 24 20
M  V30 25 1 25 7
M  V30 26 1 26 17
M  V30 27 1 27 14
M  V30 28 1 27 25
M  V30 29 1 28 1
M  V30 30 1 29 1
M  V30 31 1 30 2
M  V30 32 1 31 2
M  V30 33 1 32 2
M  V30 34 1 4 33 CFG=3
M  V30 35 1 34 5
M  V30 36 1 35 6
M  V30 37 1 36 6
M  V30 38 1 8 37 CFG=1
M  V30 39 1 38 13
M  V30 40 1 39 13
M  V30 41 1 14 40 CFG=3
M  V30 42 1 15 41 CFG=3
M  V30 43 1 42 16
M  V30 44 1 43 17
M  V30 45 1 44 20
M  V30 46 1 45 20
M  V30 47 1 23 46 CFG=3
M  V30 48 1 47 24
M  V30 49 1 48 24
M  V30 50 1 49 27
M  V30 51 1 50 27
M  V30 END BOND
M  V30 END CTAB
M  END
>  <i_epik_Tot_Q>  (1) 
0

>  <i_epik_Tot_abs_Q>  (1) 
0

>  <i_i_glide_confnum>  (1) 
32

>  <i_i_glide_lignum>  (1) 
148

>  <i_i_glide_posenum>  (1) 
74

>  <i_i_glide_rotatable_bonds>  (1) 
7

>  <i_lp_mmshare_version>  (1) 
72125

>  <i_m_source_file_index>  (1) 
75

>  <i_f3d_flags>  (1) 
0

>  <num_sample>  (1) 
100

>  <b_lp_Chiralities_Consistent>  (1) 
1

>  <r_epik_Charging_Adjusted_Penalty>  (1) 
0

>  <r_epik_Ionization_Penalty>  (1) 
3.1339630279600532e-07

>  <r_epik_Ionization_Penalty_Charging>  (1) 
0

>  <r_epik_Ionization_Penalty_Neutral>  (1) 
3.1339630279600532e-07

>  <r_epik_State_Penalty>  (1) 
-0

>  <r_glide_ring_energy>  (1) 
0

>  <r_i_docking_score>  (1) 
-5.2530823791517696

>  <r_i_glide_ecoul>  (1) 
-5.7796998001356865

>  <r_i_glide_eff_state_penalty>  (1) 
-0

>  <r_i_glide_einternal>  (1) 
2.3781609474763759

>  <r_i_glide_emodel>  (1) 
-38.295633473500821

>  <r_i_glide_emodel_strain>  (1) 
2.8682192633662922

>  <r_i_glide_energy>  (1) 
-32.377411456699207

>  <r_i_glide_erotb>  (1) 
0.47417469053287281

>  <r_i_glide_esite>  (1) 
-0.061216845841627926

>  <r_i_glide_evdw>  (1) 
-26.597711656563519

>  <r_i_glide_gscore>  (1) 
-5.2530823791517696

>  <r_i_glide_gscore_strain>  (1) 
0

>  <r_i_glide_hbond>  (1) 
-0.27660120141186395

>  <r_i_glide_ligand_efficiency>  (1) 
-0.19455860663525074

>  <r_i_glide_ligand_efficiency_ln>  (1) 
-1.2228309740350545

>  <r_i_glide_ligand_efficiency_sa>  (1) 
-0.58367581990575224

>  <r_i_glide_lipo>  (1) 
-1.3912995775837083

>  <r_i_glide_metal>  (1) 
-0

>  <r_i_glide_rewards>  (1) 
-1.8012988919989141

>  <r_lp_Energy>  (1) 
22.804843999999999

>  <r_lp_tautomer_probability>  (1) 
1

>  <s_epik_Chemistry_Notes>  (1) 
This compound has an ester and may undergo hydrolysis at high or low pH.

>  <s_epik_cmdline>  (1) 
J2VwaWtfcHl0aG9uJywgJy1waHQnLCAnMS4wJywgJy1waCcsICc3LjQnLCAnLXRuJywgJzgnLCAnLW1hJywgJzUwMCcsICctaW1hZScsICc8aW5maWxlLm1hZT4nLCAnLW9tYWUnLCAnPG91dGZpbGUubWFlPic=

>  <s_epik_input>  (1) 
RltDSF0oRilbQ0BIXShbQ0gyXTEpW0NAQEhdKEYpTihbQ0gyXUMxKEYpRilDKD1PKU9bQ0gyXVtDQEBIXShbQ0BASF0oRilbQ0gyXVtDSDJdMilbQ0gyXVtDQEhdKFtDSDNdKUMyKFtPSF0pW09IXQ==

>  <s_glide_docking_method>  (1) 
confgen

>  <s_i_glide_gridfile>  (1) 
gpcr_drd2_6luq_protein_autoprepared_prepared

>  <s_lp_Force_Field>  (1) 
S-OPLS

>  <s_lp_Variant>  (1) 
DiffSBDD_74_num_sample_100-1

>  <s_m_source_file>  (1) 
generated__ligand_DiffSBDD_2026-05-06_prepared.sdf

>  <GenAI_Model>  (1) 
DiffSBDD

>  <Protein>  (1) 
generic_title2

$$$$
DiffSBDD_74_num_sample_100
     RDKit          3D

  0  0  0  0  0  0  0  0  0  0999 V3000
M  V30 BEGIN CTAB
M  V30 COUNTS 50 51 0 0 1
M  V30 BEGIN ATOM
M  V30 1 C 9.791723 6.830371 -7.852455 0
M  V30 2 C 8.235707 4.191682 -15.030120 0
M  V30 3 F 7.434897 7.267369 -14.254366 0
M  V30 4 C 11.603239 8.946686 -6.791138 0 CFG=1
M  V30 5 O 6.634833 3.883781 -11.568976 0
M  V30 6 C 9.006740 5.178410 -12.809134 0
M  V30 7 C 10.994887 7.526868 -9.943942 0
M  V30 8 C 12.089644 7.788461 -7.691287 0 CFG=2
M  V30 9 F 13.771982 9.769258 -6.213617 0
M  V30 10 C 9.245556 7.988397 -7.020093 0
M  V30 11 F 8.814971 8.969304 -7.810985 0
M  V30 12 F 13.166667 8.169327 -8.377777 0
M  V30 13 C 10.308108 8.533548 -6.071320 0
M  V30 14 C 8.338556 6.422065 -12.176748 0 CFG=2
M  V30 15 C 8.139981 4.088316 -13.489149 0 CFG=1
M  V30 16 O 6.232754 2.685467 -13.491649 0
M  V30 17 C 12.571594 9.468589 -5.719734 0
M  V30 18 C 6.681954 3.915038 -12.973928 0
M  V30 19 O 11.921273 7.977310 -10.614119 0
M  V30 20 C 5.834689 6.375041 -12.794516 0
M  V30 21 F 8.234974 7.553027 -6.291673 0
M  V30 22 N 10.969943 7.362597 -8.545451 0
M  V30 23 C 7.182686 7.077816 -12.962130 0 CFG=2
M  V30 24 C 5.693602 4.993928 -13.460087 0
M  V30 25 O 9.834937 7.113175 -10.463085 0
M  V30 26 F 12.039422 10.569125 -5.196665 0
M  V30 27 C 9.429154 7.437849 -11.779024 0
M  V30 28 H 8.993567 6.404133 -8.460488 0
M  V30 29 H 10.110751 6.018880 -7.197226 0
M  V30 30 H 7.807465 5.116761 -15.410735 0
M  V30 31 H 9.274054 4.169425 -15.362049 0
M  V30 32 H 7.728992 3.363978 -15.525693 0
M  V30 33 H 11.422197 9.769319 -7.472870 0
M  V30 34 H 5.737913 3.992903 -11.293703 0
M  V30 35 H 9.768882 5.504774 -13.517480 0
M  V30 36 H 9.577189 4.694578 -12.014280 0
M  V30 37 H 12.386476 6.930265 -7.091694 0
M  V30 38 H 9.900932 9.369303 -5.510854 0
M  V30 39 H 10.540386 7.764799 -5.332793 0
M  V30 40 H 7.880564 6.104320 -11.238260 0
M  V30 41 H 8.653461 3.156091 -13.244728 0
M  V30 42 H 6.880262 2.026868 -13.290572 0
M  V30 43 H 12.676314 8.782726 -4.879436 0
M  V30 44 H 5.064559 7.026697 -13.208330 0
M  V30 45 H 5.595589 6.302724 -11.732387 0
M  V30 46 H 7.040743 8.078715 -12.553637 0
M  V30 47 H 5.741134 5.103029 -14.542897 0
M  V30 48 H 4.680298 4.638584 -13.267056 0
M  V30 49 H 10.265077 7.419412 -12.479771 0
M  V30 50 H 9.040336 8.456120 -11.765159 0
M  V30 END ATOM
M  V30 BEGIN BOND
M  V30 1 1 8 4
M  V30 2 1 10 1
M  V30 3 1 11 10
M  V30 4 1 12 8
M  V30 5 1 13 4
M  V30 6 1 13 10
M  V30 7 1 14 6
M  V30 8 1 15 2
M  V30 9 1 15 6
M  V30 10 1 17 4
M  V30 11 1 17 9
M  V30 12 1 18 5
M  V30 13 1 18 15
M  V30 14 1 18 16
M  V30 15 2 19 7
M  V30 16 1 21 10
M  V30 17 1 22 1
M  V30 18 1 22 7
M  V30 19 1 22 8
M  V30 20 1 23 3
M  V30 21 1 23 14
M  V30 22 1 23 20
M  V30 23 1 24 18
M  V30 24 1 24 20
M  V30 25 1 25 7
M  V30 26 1 26 17
M  V30 27 1 27 14
M  V30 28 1 27 25
M  V30 29 1 28 1
M  V30 30 1 29 1
M  V30 31 1 30 2
M  V30 32 1 31 2
M  V30 33 1 32 2
M  V30 34 1 4 33 CFG=3
M  V30 35 1 34 5
M  V30 36 1 35 6
M  V30 37 1 36 6
M  V30 38 1 8 37 CFG=1
M  V30 39 1 38 13
M  V30 40 1 39 13
M  V30 41 1 14 40 CFG=1
M  V30 42 1 15 41 CFG=1
M  V30 43 1 42 16
M  V30 44 1 43 17
M  V30 45 1 44 20
M  V30 46 1 45 20
M  V30 47 1 23 46 CFG=1
M  V30 48 1 47 24
M  V30 49 1 48 24
M  V30 50 1 49 27
M  V30 51 1 50 27
M  V30 END BOND
M  V30 END CTAB
M  END
>  <i_epik_Tot_Q>  (1) 
0

>  <i_epik_Tot_abs_Q>  (1) 
0

>  <i_i_glide_confnum>  (1) 
314

>  <i_i_glide_lignum>  (1) 
149

>  <i_i_glide_posenum>  (1) 
352

>  <i_i_glide_rotatable_bonds>  (1) 
7

>  <i_lp_mmshare_version>  (1) 
72125

>  <i_m_source_file_index>  (1) 
75

>  <i_f3d_flags>  (1) 
0

>  <num_sample>  (1) 
100

>  <b_lp_Chiralities_Consistent>  (1) 
1

>  <r_epik_Charging_Adjusted_Penalty>  (1) 
0

>  <r_epik_Ionization_Penalty>  (1) 
3.1339630279600532e-07

>  <r_epik_Ionization_Penalty_Charging>  (1) 
0

>  <r_epik_Ionization_Penalty_Neutral>  (1) 
3.1339630279600532e-07

>  <r_epik_State_Penalty>  (1) 
-0

>  <r_glide_ring_energy>  (1) 
2.4879079319723991

>  <r_i_docking_score>  (1) 
-5.2504516729092039

>  <r_i_glide_ecoul>  (1) 
-0.95740059559503965

>  <r_i_glide_eff_state_penalty>  (1) 
-0

>  <r_i_glide_einternal>  (1) 
4.4242009729886878

>  <r_i_glide_emodel>  (1) 
-38.9853468050337

>  <r_i_glide_emodel_strain>  (1) 
0.6725941439574683

>  <r_i_glide_energy>  (1) 
-31.687165287592222

>  <r_i_glide_erotb>  (1) 
0.47417469053287281

>  <r_i_glide_esite>  (1) 
-0.15169903502932419

>  <r_i_glide_evdw>  (1) 
-30.729764691997183

>  <r_i_glide_gscore>  (1) 
-5.2504516729092039

>  <r_i_glide_gscore_strain>  (1) 
0

>  <r_i_glide_hbond>  (1) 
0

>  <r_i_glide_ligand_efficiency>  (1) 
-0.19446117307071126

>  <r_i_glide_ligand_efficiency_ln>  (1) 
-1.2222185889923671

>  <r_i_glide_ligand_efficiency_sa>  (1) 
-0.58338351921213383

>  <r_i_glide_lipo>  (1) 
-1.394131637535494

>  <r_i_glide_metal>  (1) 
-0

>  <r_i_glide_rewards>  (1) 
-2.4986973669381429

>  <r_lp_Energy>  (1) 
27.319579999999998

>  <r_lp_tautomer_probability>  (1) 
1

>  <s_epik_Chemistry_Notes>  (1) 
This compound has an ester and may undergo hydrolysis at high or low pH.

>  <s_epik_cmdline>  (1) 
J2VwaWtfcHl0aG9uJywgJy1waHQnLCAnMS4wJywgJy1waCcsICc3LjQnLCAnLXRuJywgJzgnLCAnLW1hJywgJzUwMCcsICctaW1hZScsICc8aW5maWxlLm1hZT4nLCAnLW9tYWUnLCAnPG91dGZpbGUubWFlPic=

>  <s_epik_input>  (1) 
RltDSF0oRilbQ0BIXShbQ0gyXTEpW0NAQEhdKEYpTihbQ0gyXUMxKEYpRilDKD1PKU9bQ0gyXVtDQEBIXShbQ0BASF0oRilbQ0gyXVtDSDJdMilbQ0gyXVtDQEhdKFtDSDNdKUMyKFtPSF0pW09IXQ==

>  <s_glide_docking_method>  (1) 
confgen

>  <s_i_glide_gridfile>  (1) 
gpcr_drd2_6luq_protein_autoprepared_prepared

>  <s_lp_Force_Field>  (1) 
S-OPLS

>  <s_lp_Variant>  (1) 
DiffSBDD_74_num_sample_100-2

>  <s_m_source_file>  (1) 
generated__ligand_DiffSBDD_2026-05-06_prepared.sdf

>  <GenAI_Model>  (1) 
DiffSBDD

>  <Protein>  (1) 
generic_title2

$$$$
DiffSBDD_73_num_sample_100
     RDKit          3D

  0  0  0  0  0  0  0  0  0  0999 V3000
M  V30 BEGIN CTAB
M  V30 COUNTS 42 44 0 0 1
M  V30 BEGIN ATOM
M  V30 1 C 6.513983 4.630140 -12.959919 0 CFG=1
M  V30 2 C 6.281065 0.237882 -15.547967 0
M  V30 3 O 5.954728 4.017821 -11.946085 0 CHG=-1
M  V30 4 C 5.725528 -0.871200 -17.522394 0
M  V30 5 C 8.013081 5.804891 -11.366383 0
M  V30 6 C 8.874495 3.685324 -12.507523 0
M  V30 7 N 6.948218 5.940706 -12.401604 0 CFG=1 CHG=1
M  V30 8 C 7.263455 2.562337 -14.231536 0
M  V30 9 C 6.159235 0.195634 -18.329366 0
M  V30 10 C 6.740255 1.366781 -16.289893 0
M  V30 11 N 5.787401 -0.857095 -16.174690 0
M  V30 12 C 9.242562 5.042143 -11.890463 0
M  V30 13 C 6.226206 7.236868 -14.495318 0
M  V30 14 C 6.346747 0.299064 -14.136550 0
M  V30 15 C 7.287835 6.991836 -13.406882 0
M  V30 16 C 6.062586 0.116278 -19.800823 0
M  V30 17 C 6.680551 1.336022 -17.694465 0
M  V30 18 C 6.829485 1.451865 -13.482687 0
M  V30 19 C 7.232709 2.509967 -15.634395 0
M  V30 20 C 7.727684 3.839468 -13.529705 0 CFG=1
M  V30 21 N 6.436891 1.032271 -20.586311 0
M  V30 22 H 5.876151 4.816324 -13.818934 0
M  V30 23 H 5.316388 -1.764371 -17.970833 0
M  V30 24 H 7.604359 5.295994 -10.491866 0
M  V30 25 H 8.309746 6.791596 -11.011608 0
M  V30 26 H 8.629162 2.976996 -11.723460 0
M  V30 27 H 9.759200 3.284824 -12.990440 0
M  V30 28 H 9.933179 4.882014 -11.067285 0
M  V30 29 H 9.776959 5.647615 -12.622355 0
M  V30 30 H 6.442240 8.155337 -15.044021 0
M  V30 31 H 6.195229 6.437662 -15.235743 0
M  V30 32 H 5.235025 7.344518 -14.056824 0
M  V30 33 H 6.006601 -0.544791 -13.551014 0
M  V30 34 H 7.445992 7.924323 -12.864861 0
M  V30 35 H 8.234839 6.757413 -13.888941 0
M  V30 36 H 5.635814 -0.804637 -20.207061 0
M  V30 37 H 7.020905 2.181868 -18.273930 0
M  V30 38 H 6.848460 1.489319 -12.403400 0
M  V30 39 H 7.562868 3.360412 -16.213408 0
M  V30 40 H 8.150680 4.456008 -14.322767 0
M  V30 41 H 6.286429 0.800524 -21.558090 0
M  V30 42 H 6.136316 6.268962 -11.899706 0
M  V30 END ATOM
M  V30 BEGIN BOND
M  V30 1 1 3 1
M  V30 2 1 7 1
M  V30 3 1 7 5
M  V30 4 1 9 4
M  V30 5 1 10 2
M  V30 6 1 11 2
M  V30 7 2 11 4
M  V30 8 1 12 5
M  V30 9 1 12 6
M  V30 10 2 14 2
M  V30 11 1 15 7
M  V30 12 1 15 13
M  V30 13 1 16 9
M  V30 14 2 17 9
M  V30 15 1 17 10
M  V30 16 2 18 8
M  V30 17 1 18 14
M  V30 18 1 19 8
M  V30 19 2 19 10
M  V30 20 1 20 1
M  V30 21 1 20 6
M  V30 22 1 20 8
M  V30 23 2 21 16
M  V30 24 1 1 22 CFG=3
M  V30 25 1 23 4
M  V30 26 1 24 5
M  V30 27 1 25 5
M  V30 28 1 26 6
M  V30 29 1 27 6
M  V30 30 1 28 12
M  V30 31 1 29 12
M  V30 32 1 30 13
M  V30 33 1 31 13
M  V30 34 1 32 13
M  V30 35 1 33 14
M  V30 36 1 34 15
M  V30 37 1 35 15
M  V30 38 1 36 16
M  V30 39 1 37 17
M  V30 40 1 38 18
M  V30 41 1 39 19
M  V30 42 1 20 40 CFG=3
M  V30 43 1 41 21
M  V30 44 1 7 42 CFG=1
M  V30 END BOND
M  V30 END CTAB
M  END
>  <i_epik_Tot_Q>  (1) 
0

>  <i_epik_Tot_abs_Q>  (1) 
2

>  <i_i_glide_confnum>  (1) 
10

>  <i_i_glide_lignum>  (1) 
146

>  <i_i_glide_posenum>  (1) 
398

>  <i_i_glide_rotatable_bonds>  (1) 
3

>  <i_lp_mmshare_version>  (1) 
72125

>  <i_m_source_file_index>  (1) 
74

>  <i_f3d_flags>  (1) 
0

>  <num_sample>  (1) 
100

>  <b_lp_Chiralities_Consistent>  (1) 
1

>  <r_epik_Charging_Adjusted_Penalty>  (1) 
0.16727262916870361

>  <r_epik_Ionization_Penalty>  (1) 
0.055388618387316971

>  <r_epik_Ionization_Penalty_Charging>  (1) 
0.05537307808352282

>  <r_epik_Ionization_Penalty_Neutral>  (1) 
1.5540303794148587e-05

>  <r_epik_State_Penalty>  (1) 
0.11189955108518078

>  <r_glide_ring_energy>  (1) 
2.2761646496087313

>  <r_i_docking_score>  (1) 
-5.2445949104179226

>  <r_i_glide_ecoul>  (1) 
-2.5872502316579808

>  <r_i_glide_eff_state_penalty>  (1) 
0.11189955108518078

>  <r_i_glide_einternal>  (1) 
6.1380842162568978

>  <r_i_glide_emodel>  (1) 
-35.108276908676721

>  <r_i_glide_emodel_strain>  (1) 
0.46685882241158083

>  <r_i_glide_energy>  (1) 
-27.396824618882562

>  <r_i_glide_erotb>  (1) 
0.22551580141899327

>  <r_i_glide_esite>  (1) 
-0.033970207123238692

>  <r_i_glide_evdw>  (1) 
-24.809574387224583

>  <r_i_glide_gscore>  (1) 
-5.3564944615031029

>  <r_i_glide_gscore_strain>  (1) 
0

>  <r_i_glide_hbond>  (1) 
0

>  <r_i_glide_ligand_efficiency>  (1) 
-0.24974261478180584

>  <r_i_glide_ligand_efficiency_ln>  (1) 
-1.2967154938989522

>  <r_i_glide_ligand_efficiency_sa>  (1) 
-0.68902093779416129

>  <r_i_glide_lipo>  (1) 
-1.7674974662999776

>  <r_i_glide_metal>  (1) 
-0

>  <r_i_glide_rewards>  (1) 
-2.1519763353889538

>  <r_lp_Energy>  (1) 
46.855032999999999

>  <s_epik_Chemistry_Notes>  (1) 
This compound has an imine and may undergo hydrolysis. This compound contains an acetal/aminal-like group ( X-CH(R)-Y where X, Y are N, S, or O) that may be acid/base labile, releasing an aldehyde.

>  <s_epik_cmdline>  (1) 
J2VwaWtfcHl0aG9uJywgJy1waHQnLCAnMS4wJywgJy1waCcsICc3LjQnLCAnLXRuJywgJzgnLCAnLW1hJywgJzUwMCcsICctaW1hZScsICc8aW5maWxlLm1hZT4nLCAnLW9tYWUnLCAnPG91dGZpbGUubWFlPic=

>  <s_epik_input>  (1) 
W09IXVtDQEhdMU4oW0NIMl1bQ0gzXSlbQ0gyXVtDSDJdW0NIMl1bQ0BIXTFjKFtjSF1bY0hdMilbY0hdYyhjMjMpW2NIXWMoW2NIXW4zKS9bQ0hdPU4vW0hd

>  <s_glide_docking_method>  (1) 
confgen

>  <s_i_glide_gridfile>  (1) 
gpcr_drd2_6luq_protein_autoprepared_prepared

>  <s_lp_Force_Field>  (1) 
S-OPLS

>  <s_lp_Variant>  (1) 
DiffSBDD_73_num_sample_100-1

>  <s_m_source_file>  (1) 
generated__ligand_DiffSBDD_2026-05-06_prepared.sdf

>  <GenAI_Model>  (1) 
DiffSBDD

>  <Protein>  (1) 
generic_title2

$$$$
DiffSBDD_11_num_sample_100
     RDKit          3D

  0  0  0  0  0  0  0  0  0  0999 V3000
M  V30 BEGIN CTAB
M  V30 COUNTS 56 58 0 0 1
M  V30 BEGIN ATOM
M  V30 1 C 7.978457 4.177021 -14.443303 0 CFG=1
M  V30 2 C 11.312401 6.920974 -6.328377 0 CFG=2
M  V30 3 N 7.438810 2.987046 -16.557648 0
M  V30 4 C 10.144039 7.799696 -8.936822 0 CFG=1
M  V30 5 O 8.239221 1.131575 -15.532314 0
M  V30 6 C 6.675621 4.981323 -14.268383 0
M  V30 7 S 11.735327 8.544976 -8.548129 0
M  V30 8 O 11.836355 7.661080 -2.585856 0
M  V30 9 O 10.086458 6.512225 -6.933399 0
M  V30 10 C 9.908671 7.884329 -10.426600 0
M  V30 11 C 9.148269 4.475627 -12.217435 0
M  V30 12 C 12.212564 9.262343 -6.002463 0
M  V30 13 C 11.044010 6.908834 -4.808782 0
M  V30 14 C 9.964423 6.682708 -11.365204 0
M  V30 15 C 10.897103 6.894074 -12.553470 0
M  V30 16 C 7.451452 1.664142 -16.312624 0
M  V30 17 C 11.783269 8.292066 -6.823702 0
M  V30 18 C 8.357308 3.917873 -15.915036 0
M  V30 19 C 9.207898 5.544208 -11.172378 0
M  V30 20 C 6.422662 0.822608 -17.057273 0
M  V30 21 Cl 11.035264 10.168905 -3.890268 0
M  V30 22 C 10.037401 6.413170 -8.352367 0 CFG=1
M  V30 23 C 9.144072 4.868212 -13.701172 0
M  V30 24 C 12.293856 9.121979 -4.501617 0 CFG=1
M  V30 25 C 12.099699 7.676304 -3.977971 0 CFG=1
M  V30 26 O 9.036928 3.294443 -11.928241 0
M  V30 27 C 8.759767 5.694151 -8.719316 0
M  V30 28 C 8.419649 5.286692 -9.959930 0
M  V30 29 H 7.776205 3.206450 -13.991281 0
M  V30 30 H 12.079915 6.185343 -6.568520 0
M  V30 31 H 6.757227 3.363273 -17.201101 0
M  V30 32 H 9.406314 8.440943 -8.445347 0
M  V30 33 H 6.769993 5.975847 -14.702815 0
M  V30 34 H 6.405952 5.094610 -13.217276 0
M  V30 35 H 5.826343 4.495643 -14.735330 0
M  V30 36 H 12.410402 8.285961 -2.166737 0
M  V30 37 H 8.937242 8.349512 -10.596203 0
M  V30 38 H 10.606467 8.607154 -10.840780 0
M  V30 39 H 12.522656 10.209267 -6.410331 0
M  V30 40 H 10.070781 7.374574 -4.691335 0
M  V30 41 H 10.955304 5.880720 -4.450275 0
M  V30 42 H 11.879172 7.112501 -12.135071 0
M  V30 43 H 10.605985 7.776509 -13.091485 0
M  V30 44 H 11.113302 6.107342 -13.254148 0
M  V30 45 H 8.358923 4.863171 -16.462194 0
M  V30 46 H 9.365511 3.514733 -16.005366 0
M  V30 47 H 5.874771 1.418978 -17.789593 0
M  V30 48 H 5.703598 0.395781 -16.354735 0
M  V30 49 H 6.932345 0.000762 -17.564241 0
M  V30 50 H 10.856921 5.775500 -8.684622 0
M  V30 51 H 10.093423 4.572038 -14.144639 0
M  V30 52 H 9.019856 5.941494 -13.825726 0
M  V30 53 H 13.243218 9.526390 -4.144031 0
M  V30 54 H 13.037389 7.133241 -4.016092 0
M  V30 55 H 8.107580 5.445451 -7.896870 0
M  V30 56 H 7.512181 4.705599 -10.060460 0
M  V30 END ATOM
M  V30 BEGIN BOND
M  V30 1 1 6 1
M  V30 2 1 7 4
M  V30 3 1 9 2
M  V30 4 1 10 4
M  V30 5 1 13 2
M  V30 6 1 14 10
M  V30 7 1 15 14
M  V30 8 1 16 3
M  V30 9 2 16 5
M  V30 10 1 17 2
M  V30 11 1 17 7
M  V30 12 2 17 12
M  V30 13 1 18 1
M  V30 14 1 18 3
M  V30 15 1 19 11
M  V30 16 2 19 14
M  V30 17 1 20 16
M  V30 18 1 22 4
M  V30 19 1 22 9
M  V30 20 1 23 1
M  V30 21 1 23 11
M  V30 22 1 24 12
M  V30 23 1 24 21
M  V30 24 1 25 8
M  V30 25 1 25 13
M  V30 26 1 25 24
M  V30 27 2 26 11
M  V30 28 1 27 22
M  V30 29 1 28 19
M  V30 30 2 28 27
M  V30 31 1 1 29 CFG=1
M  V30 32 1 2 30 CFG=1
M  V30 33 1 31 3
M  V30 34 1 4 32 CFG=1
M  V30 35 1 33 6
M  V30 36 1 34 6
M  V30 37 1 35 6
M  V30 38 1 36 8
M  V30 39 1 37 10
M  V30 40 1 38 10
M  V30 41 1 39 12
M  V30 42 1 40 13
M  V30 43 1 41 13
M  V30 44 1 42 15
M  V30 45 1 43 15
M  V30 46 1 44 15
M  V30 47 1 45 18
M  V30 48 1 46 18
M  V30 49 1 47 20
M  V30 50 1 48 20
M  V30 51 1 49 20
M  V30 52 1 22 50 CFG=3
M  V30 53 1 51 23
M  V30 54 1 52 23
M  V30 55 1 24 53 CFG=1
M  V30 56 1 25 54 CFG=1
M  V30 57 1 55 27
M  V30 58 1 56 28
M  V30 END BOND
M  V30 END CTAB
M  END
>  <i_epik_Tot_Q>  (1) 
0

>  <i_epik_Tot_abs_Q>  (1) 
0

>  <i_i_glide_confnum>  (1) 
231

>  <i_i_glide_lignum>  (1) 
19

>  <i_i_glide_posenum>  (1) 
274

>  <i_i_glide_rotatable_bonds>  (1) 
7

>  <i_lp_mmshare_version>  (1) 
72125

>  <i_m_source_file_index>  (1) 
12

>  <i_f3d_flags>  (1) 
0

>  <num_sample>  (1) 
100

>  <b_lp_Chiralities_Consistent>  (1) 
1

>  <r_epik_Charging_Adjusted_Penalty>  (1) 
0

>  <r_epik_Ionization_Penalty>  (1) 
0.000136015572717869

>  <r_epik_Ionization_Penalty_Charging>  (1) 
0

>  <r_epik_Ionization_Penalty_Neutral>  (1) 
0.000136015572717869

>  <r_epik_State_Penalty>  (1) 
-0

>  <r_glide_ring_energy>  (1) 
0

>  <r_i_docking_score>  (1) 
-5.2420989905465429

>  <r_i_glide_ecoul>  (1) 
0.35409288262812333

>  <r_i_glide_eff_state_penalty>  (1) 
-0

>  <r_i_glide_einternal>  (1) 
18.0888616418605

>  <r_i_glide_emodel>  (1) 
-20.531141213226249

>  <r_i_glide_emodel_strain>  (1) 
4.3779985931633689

>  <r_i_glide_energy>  (1) 
-27.890157990162713

>  <r_i_glide_erotb>  (1) 
0.5467392007768872

>  <r_i_glide_esite>  (1) 
0

>  <r_i_glide_evdw>  (1) 
-28.244250872790836

>  <r_i_glide_gscore>  (1) 
-5.2420989905465429

>  <r_i_glide_gscore_strain>  (1) 
0.094499648290842231

>  <r_i_glide_hbond>  (1) 
0

>  <r_i_glide_ligand_efficiency>  (1) 
-0.18721782109094795

>  <r_i_glide_ligand_efficiency_ln>  (1) 
-1.2100303617325168

>  <r_i_glide_ligand_efficiency_sa>  (1) 
-0.56850357086336345

>  <r_i_glide_lipo>  (1) 
-2.6161808090744207

>  <r_i_glide_metal>  (1) 
-0

>  <r_i_glide_rewards>  (1) 
-1.9080584192945285

>  <r_lp_Energy>  (1) 
20.078344999999999

>  <r_lp_tautomer_probability>  (1) 
1

>  <s_epik_cmdline>  (1) 
J2VwaWtfcHl0aG9uJywgJy1waHQnLCAnMS4wJywgJy1waCcsICc3LjQnLCAnLXRuJywgJzgnLCAnLW1hJywgJzUwMCcsICctaW1hZScsICc8aW5maWxlLm1hZT4nLCAnLW9tYWUnLCAnPG91dGZpbGUubWFlPic=

>  <s_epik_input>  (1) 
Tz1DKFtDSDNdKVtOSF1bQ0gyXVtDQEhdKFtDSDNdKVtDSDJdQyg9TylDKD1DKFtDSDJdMSlbQ0gzXSlbQ0hdPVtDSF1bQ0BIXShPMilbQ0BIXTFTQyhbQ0BASF0yMyk9W0NIXVtDQEBIXShDbClbQ0BASF0oW09IXSlbQ0gyXTM=

>  <s_glide_docking_method>  (1) 
confgen

>  <s_i_glide_gridfile>  (1) 
gpcr_drd2_6luq_protein_autoprepared_prepared

>  <s_lp_Force_Field>  (1) 
S-OPLS

>  <s_lp_Variant>  (1) 
DiffSBDD_11_num_sample_100-2

>  <s_m_source_file>  (1) 
generated__ligand_DiffSBDD_2026-05-06_prepared.sdf

>  <GenAI_Model>  (1) 
DiffSBDD

>  <Protein>  (1) 
generic_title2

$$$$
DiffSBDD_34_num_sample_100
     RDKit          3D

  0  0  0  0  0  0  0  0  0  0999 V3000
M  V30 BEGIN CTAB
M  V30 COUNTS 61 64 0 0 1
M  V30 BEGIN ATOM
M  V30 1 N 10.048937 4.347712 -17.054248 0
M  V30 2 C 6.951237 4.267492 -14.938288 0 CFG=1
M  V30 3 C 10.052726 6.393848 -8.310850 0
M  V30 4 C 9.715586 6.177148 -6.967243 0
M  V30 5 C 7.544275 1.879179 -16.073227 0
M  V30 6 C 11.221693 6.569303 -2.420573 0
M  V30 7 C 7.034827 2.689735 -14.823286 0
M  V30 8 C 8.640081 2.729435 -16.601523 0
M  V30 9 C 11.618666 9.007080 -5.224283 0
M  V30 10 N 11.835018 8.468386 -3.985794 0
M  V30 11 C 9.000058 6.014408 -10.712244 0
M  V30 12 C 11.406202 8.316836 -7.648599 0
M  V30 13 C 10.905670 7.467601 -8.654013 0
M  V30 14 C 11.083983 8.079917 -6.293144 0
M  V30 15 O 12.420383 9.369305 -3.068566 0
M  V30 16 C 6.515605 4.912207 -13.603711 0
M  V30 17 C 12.082154 7.065626 -3.595315 0
M  V30 18 C 6.491095 1.697896 -17.177335 0
M  V30 19 C 10.231906 7.006113 -5.960545 0
M  V30 20 C 10.423760 3.304179 -17.792556 0
M  V30 21 C 7.712596 5.606097 -12.911272 0 CFG=2
M  V30 22 O 6.694310 5.369292 -10.691779 0
M  V30 23 C 8.943337 4.027512 -16.306320 0
M  V30 24 O 11.835002 10.188311 -5.488536 0
M  V30 25 S 9.193597 5.177403 -13.867008 0
M  V30 26 C 9.499682 5.451817 -9.378027 0
M  V30 27 C 8.025964 0.490400 -15.611783 0
M  V30 28 C 7.895672 5.221162 -11.424004 0 CFG=2
M  V30 29 N 9.570026 2.316596 -17.524677 0 CHG=1
M  V30 30 C 8.264033 4.957293 -15.380099 0 CFG=2
M  V30 31 O 9.462235 7.048641 -11.196428 0
M  V30 32 H 6.234842 4.515372 -15.711076 0
M  V30 33 H 9.056573 5.369310 -6.705440 0
M  V30 34 H 11.734682 5.768624 -1.892714 0
M  V30 35 H 10.263161 6.169300 -2.753995 0
M  V30 36 H 11.034846 7.353843 -1.686362 0
M  V30 37 H 7.748726 2.511605 -14.015772 0
M  V30 38 H 6.118738 2.256952 -14.432719 0
M  V30 39 H 12.049890 9.142970 -7.915081 0
M  V30 40 H 11.174958 7.643397 -9.682585 0
M  V30 41 H 12.389485 8.908454 -2.244449 0
M  V30 42 H 5.741901 5.657819 -13.791341 0
M  V30 43 H 6.054577 4.167402 -12.954244 0
M  V30 44 H 12.079882 6.353503 -4.417748 0
M  V30 45 H 13.116129 7.039950 -3.249408 0
M  V30 46 H 5.579447 1.241980 -16.791674 0
M  V30 47 H 6.864636 1.051299 -17.972061 0
M  V30 48 H 6.234849 2.643760 -17.648441 0
M  V30 49 H 9.952211 6.828904 -4.936587 0
M  V30 50 H 11.256403 3.266123 -18.473566 0
M  V30 51 H 7.569787 6.684433 -13.001030 0
M  V30 52 H 6.634838 6.275932 -10.383329 0
M  V30 53 H 10.516360 5.246831 -17.045258 0
M  V30 54 H 8.654456 4.926933 -8.931870 0
M  V30 55 H 10.234362 4.678081 -9.577290 0
M  V30 56 H 7.178670 -0.144423 -15.349978 0
M  V30 57 H 8.634849 0.555892 -14.714847 0
M  V30 58 H 8.594721 -0.032708 -16.381123 0
M  V30 59 H 8.166025 4.166647 -11.372596 0
M  V30 60 H 8.072025 5.921431 -15.850789 0
M  V30 61 H 9.605652 1.394206 -17.940876 0
M  V30 END ATOM
M  V30 BEGIN BOND
M  V30 1 1 4 3
M  V30 2 1 7 2
M  V30 3 1 7 5
M  V30 4 1 8 5
M  V30 5 1 10 9
M  V30 6 2 13 3
M  V30 7 1 13 12
M  V30 8 1 14 9
M  V30 9 2 14 12
M  V30 10 1 15 10
M  V30 11 1 16 2
M  V30 12 1 17 6
M  V30 13 1 17 10
M  V30 14 1 18 5
M  V30 15 2 19 4
M  V30 16 1 19 14
M  V30 17 1 20 1
M  V30 18 1 21 16
M  V30 19 1 23 1
M  V30 20 2 23 8
M  V30 21 2 24 9
M  V30 22 1 25 21
M  V30 23 1 26 3
M  V30 24 1 26 11
M  V30 25 1 27 5
M  V30 26 1 28 11
M  V30 27 1 28 21
M  V30 28 1 28 22
M  V30 29 1 29 8
M  V30 30 2 29 20
M  V30 31 1 30 2
M  V30 32 1 30 23
M  V30 33 1 30 25
M  V30 34 2 31 11
M  V30 35 1 2 32 CFG=3
M  V30 36 1 33 4
M  V30 37 1 34 6
M  V30 38 1 35 6
M  V30 39 1 36 6
M  V30 40 1 37 7
M  V30 41 1 38 7
M  V30 42 1 39 12
M  V30 43 1 40 13
M  V30 44 1 41 15
M  V30 45 1 42 16
M  V30 46 1 43 16
M  V30 47 1 44 17
M  V30 48 1 45 17
M  V30 49 1 46 18
M  V30 50 1 47 18
M  V30 51 1 48 18
M  V30 52 1 49 19
M  V30 53 1 50 20
M  V30 54 1 21 51 CFG=1
M  V30 55 1 52 22
M  V30 56 1 53 1
M  V30 57 1 54 26
M  V30 58 1 55 26
M  V30 59 1 56 27
M  V30 60 1 57 27
M  V30 61 1 58 27
M  V30 62 1 28 59 CFG=3
M  V30 63 1 30 60 CFG=3
M  V30 64 1 61 29
M  V30 END BOND
M  V30 END CTAB
M  END
>  <i_epik_Tot_Q>  (1) 
1

>  <i_epik_Tot_abs_Q>  (1) 
1

>  <i_i_glide_confnum>  (1) 
131

>  <i_i_glide_lignum>  (1) 
60

>  <i_i_glide_posenum>  (1) 
203

>  <i_i_glide_rotatable_bonds>  (1) 
9

>  <i_lp_mmshare_version>  (1) 
72125

>  <i_m_source_file_index>  (1) 
35

>  <i_f3d_flags>  (1) 
0

>  <num_sample>  (1) 
100

>  <b_lp_Chiralities_Consistent>  (1) 
1

>  <r_epik_Charging_Adjusted_Penalty>  (1) 
0.45828602493401616

>  <r_epik_Ionization_Penalty>  (1) 
0.57733411105264909

>  <r_epik_Ionization_Penalty_Charging>  (1) 
0

>  <r_epik_Ionization_Penalty_Neutral>  (1) 
0.57733411105264909

>  <r_epik_State_Penalty>  (1) 
0.45828602493401616

>  <r_glide_ring_energy>  (1) 
0

>  <r_i_docking_score>  (1) 
-5.2357613288912663

>  <r_i_glide_ecoul>  (1) 
-4.7760555644988321

>  <r_i_glide_eff_state_penalty>  (1) 
0.45828602493401616

>  <r_i_glide_einternal>  (1) 
15.509992280538491

>  <r_i_glide_emodel>  (1) 
-46.115221147745359

>  <r_i_glide_emodel_strain>  (1) 
4.1737402800016241

>  <r_i_glide_energy>  (1) 
-43.486304457830251

>  <r_i_glide_erotb>  (1) 
0.60717041942003669

>  <r_i_glide_esite>  (1) 
-0.06612794056165279

>  <r_i_glide_evdw>  (1) 
-38.710248893331418

>  <r_i_glide_gscore>  (1) 
-5.6940473538252823

>  <r_i_glide_gscore_strain>  (1) 
0.043435070000406029

>  <r_i_glide_hbond>  (1) 
-0.16

>  <r_i_glide_ligand_efficiency>  (1) 
-0.16889552673842795

>  <r_i_glide_ligand_efficiency_ln>  (1) 
-1.1808246364795765

>  <r_i_glide_ligand_efficiency_sa>  (1) 
-0.53056513997155086

>  <r_i_glide_lipo>  (1) 
-2.0438532971395209

>  <r_i_glide_metal>  (1) 
-0

>  <r_i_glide_rewards>  (1) 
-1.4227508262031545

>  <r_lp_Energy>  (1) 
47.808426999999995

>  <r_lp_tautomer_probability>  (1) 
0.99990000499974985

>  <s_epik_Chemistry_Notes>  (1) 
This compound has a N-S or N-O group and may undergo hydrolysis at high or low pH.

>  <s_epik_cmdline>  (1) 
J2VwaWtfcHl0aG9uJywgJy1waHQnLCAnMS4wJywgJy1waCcsICc3LjQnLCAnLXRuJywgJzgnLCAnLW1hJywgJzUwMCcsICctaW1hZScsICc8aW5maWxlLm1hZT4nLCAnLW9tYWUnLCAnPG91dGZpbGUubWFlPic=

>  <s_epik_input>  (1) 
TjE9W0NIXU49QyhDKFtDSDJdMikoW0NIM10pW0NIM10pW0NASF0xW0NAQEhdKFtDQEBIXTIzKVNbQ0BASF0oW0NIMl0zKVtDQEhdKFtPSF0pQyg9TylbQ0gyXWM0W2NIXVtjSF1jKFtjSF1bY0hdNClDKD1PKU4oW09IXSlbQ0gyXVtDSDNd

>  <s_glide_docking_method>  (1) 
confgen

>  <s_i_glide_gridfile>  (1) 
gpcr_drd2_6luq_protein_autoprepared_prepared

>  <s_lp_Force_Field>  (1) 
S-OPLS

>  <s_lp_Variant>  (1) 
DiffSBDD_34_num_sample_100-1

>  <s_m_source_file>  (1) 
generated__ligand_DiffSBDD_2026-05-06_prepared.sdf

>  <GenAI_Model>  (1) 
DiffSBDD

>  <Protein>  (1) 
generic_title2

$$$$
DiffSBDD_79_num_sample_100
     RDKit          3D

  0  0  0  0  0  0  0  0  0  0999 V3000
M  V30 BEGIN CTAB
M  V30 COUNTS 55 58 0 0 1
M  V30 BEGIN ATOM
M  V30 1 C 6.563774 0.376279 -15.274547 0
M  V30 2 C 6.978057 2.481254 -13.902047 0
M  V30 3 O 8.329391 3.936471 -17.002428 0
M  V30 4 C 11.403335 8.759956 -7.601927 0
M  V30 5 C 10.892692 7.541664 -7.868633 0
M  V30 6 C 8.235347 3.907752 -15.755100 0
M  V30 7 C 7.565976 5.197806 -10.416893 0
M  V30 8 C 9.833805 6.122304 -9.850790 0 CFG=1
M  V30 9 C 11.482005 9.435074 -6.274868 0
M  V30 10 C 8.597232 5.489257 -9.302225 0
M  V30 11 S 6.248446 0.957010 -13.548083 0
M  V30 12 C 11.435013 7.475138 -4.691520 0
M  V30 13 C 10.382177 6.607040 -6.831761 0
M  V30 14 F 11.834754 7.022442 -3.489604 0
M  V30 15 C 9.727752 7.546029 -10.275335 0 CFG=1
M  V30 16 C 11.834663 8.692119 -5.043602 0
M  V30 17 C 10.840544 7.107171 -9.308984 0 CFG=1
M  V30 18 C 5.436007 5.212468 -12.488986 0
M  V30 19 O 8.714198 4.720615 -14.941362 0 CHG=-1
M  V30 20 C 7.260859 1.505482 -16.116787 0
M  V30 21 C 10.615743 6.585479 -5.487768 0
M  V30 22 C 7.451313 2.652581 -15.152220 0
M  V30 23 C 8.226205 6.950762 -12.261786 0
M  V30 24 N 6.961468 3.360474 -12.808076 0
M  V30 25 O 12.611611 9.440161 -4.253490 0
M  V30 26 C 6.870502 4.818925 -12.852784 0 CFG=2
M  V30 27 C 9.588637 7.546152 -11.788460 0
M  V30 28 C 7.948565 5.450651 -11.918176 0 CFG=2
M  V30 29 H 5.618686 0.083217 -15.733146 0
M  V30 30 H 7.191848 -0.513667 -15.238182 0
M  V30 31 H 11.745741 9.357000 -8.435175 0
M  V30 32 H 7.254004 4.166844 -10.291058 0
M  V30 33 H 6.668761 5.769292 -10.184843 0
M  V30 34 H 10.234829 5.448643 -10.590661 0
M  V30 35 H 10.518576 9.905612 -6.098723 0
M  V30 36 H 12.183737 10.260444 -6.406433 0
M  V30 37 H 8.874484 4.568525 -8.794675 0
M  V30 38 H 8.153085 6.142803 -8.553645 0
M  V30 39 H 9.779574 5.797175 -7.189420 0
M  V30 40 H 9.034826 8.216333 -9.782955 0
M  V30 41 H 11.839043 7.064941 -9.738912 0
M  V30 42 H 5.331109 6.296326 -12.427769 0
M  V30 43 H 4.754257 4.854985 -13.261710 0
M  V30 44 H 5.108742 4.787147 -11.540223 0
M  V30 45 H 6.638425 1.814944 -16.957065 0
M  V30 46 H 8.224007 1.169038 -16.504618 0
M  V30 47 H 10.166290 5.769847 -4.950404 0
M  V30 48 H 8.193855 7.061564 -13.346244 0
M  V30 49 H 7.407922 7.566667 -11.890385 0
M  V30 50 H 12.826012 10.224943 -4.730771 0
M  V30 51 H 6.922028 5.220105 -13.850819 0
M  V30 52 H 10.415632 7.000082 -12.244336 0
M  V30 53 H 9.672059 8.570015 -12.141741 0
M  V30 54 H 8.863422 4.906492 -12.152412 0
M  V30 55 H 6.627585 2.966399 -11.942361 0
M  V30 END ATOM
M  V30 BEGIN BOND
M  V30 1 2 5 4
M  V30 2 2 6 3
M  V30 3 1 9 4
M  V30 4 1 10 7
M  V30 5 1 10 8
M  V30 6 1 11 1
M  V30 7 1 11 2
M  V30 8 1 13 5
M  V30 9 1 14 12
M  V30 10 1 15 8
M  V30 11 1 16 9
M  V30 12 2 16 12
M  V30 13 1 17 5
M  V30 14 1 17 8
M  V30 15 1 17 15
M  V30 16 1 19 6
M  V30 17 1 20 1
M  V30 18 1 21 12
M  V30 19 2 21 13
M  V30 20 2 22 2
M  V30 21 1 22 6
M  V30 22 1 22 20
M  V30 23 1 24 2
M  V30 24 1 25 16
M  V30 25 1 26 18
M  V30 26 1 26 24
M  V30 27 1 27 15
M  V30 28 1 27 23
M  V30 29 1 28 7
M  V30 30 1 28 23
M  V30 31 1 28 26
M  V30 32 1 29 1
M  V30 33 1 30 1
M  V30 34 1 31 4
M  V30 35 1 32 7
M  V30 36 1 33 7
M  V30 37 1 8 34 CFG=3
M  V30 38 1 35 9
M  V30 39 1 36 9
M  V30 40 1 37 10
M  V30 41 1 38 10
M  V30 42 1 39 13
M  V30 43 1 15 40 CFG=1
M  V30 44 1 17 41 CFG=3
M  V30 45 1 42 18
M  V30 46 1 43 18
M  V30 47 1 44 18
M  V30 48 1 45 20
M  V30 49 1 46 20
M  V30 50 1 47 21
M  V30 51 1 48 23
M  V30 52 1 49 23
M  V30 53 1 50 25
M  V30 54 1 26 51 CFG=3
M  V30 55 1 52 27
M  V30 56 1 53 27
M  V30 57 1 28 54 CFG=3
M  V30 58 1 55 24
M  V30 END BOND
M  V30 END CTAB
M  END
>  <i_epik_Tot_Q>  (1) 
-1

>  <i_epik_Tot_abs_Q>  (1) 
1

>  <i_i_glide_confnum>  (1) 
9

>  <i_i_glide_lignum>  (1) 
160

>  <i_i_glide_posenum>  (1) 
379

>  <i_i_glide_rotatable_bonds>  (1) 
6

>  <i_lp_mmshare_version>  (1) 
72125

>  <i_m_source_file_index>  (1) 
80

>  <i_f3d_flags>  (1) 
0

>  <num_sample>  (1) 
100

>  <b_lp_Chiralities_Consistent>  (1) 
1

>  <r_epik_Charging_Adjusted_Penalty>  (1) 
0.11080769427664984

>  <r_epik_Ionization_Penalty>  (1) 
0.11081096683628129

>  <r_epik_Ionization_Penalty_Charging>  (1) 
0.00049387447544676805

>  <r_epik_Ionization_Penalty_Neutral>  (1) 
0.11031709236083452

>  <r_epik_State_Penalty>  (1) 
0.11031381980120307

>  <r_glide_ring_energy>  (1) 
0.00060166262151322434

>  <r_i_docking_score>  (1) 
-5.2337990439072675

>  <r_i_glide_ecoul>  (1) 
1.9612270384189614

>  <r_i_glide_eff_state_penalty>  (1) 
0.11031381980120307

>  <r_i_glide_einternal>  (1) 
4.2681799352213314

>  <r_i_glide_emodel>  (1) 
-41.442731353988286

>  <r_i_glide_emodel_strain>  (1) 
1.7453753700809216

>  <r_i_glide_energy>  (1) 
-34.773843092450207

>  <r_i_glide_erotb>  (1) 
0.48016734467205424

>  <r_i_glide_esite>  (1) 
0

>  <r_i_glide_evdw>  (1) 
-36.735070130869168

>  <r_i_glide_gscore>  (1) 
-5.3441128637084709

>  <r_i_glide_gscore_strain>  (1) 
0

>  <r_i_glide_hbond>  (1) 
0

>  <r_i_glide_ligand_efficiency>  (1) 
-0.18692139442525954

>  <r_i_glide_ligand_efficiency_ln>  (1) 
-1.2081144903511494

>  <r_i_glide_ligand_efficiency_sa>  (1) 
-0.56760344491936421

>  <r_i_glide_lipo>  (1) 
-2.2631278885855033

>  <r_i_glide_metal>  (1) 
-0

>  <r_i_glide_rewards>  (1) 
-2.0185828690144074

>  <r_lp_Energy>  (1) 
42.621707000000001

>  <s_epik_cmdline>  (1) 
J2VwaWtfcHl0aG9uJywgJy1waHQnLCAnMS4wJywgJy1waCcsICc3LjQnLCAnLXRuJywgJzgnLCAnLW1hJywgJzUwMCcsICctaW1hZScsICc8aW5maWxlLm1hZT4nLCAnLW9tYWUnLCAnPG91dGZpbGUubWFlPic=

>  <s_epik_input>  (1) 
Tz1DKFtPSF0pW0NASF0xW0NIMl1bQ0gyXVMvQzE9Ti9bQ0BASF0oW0NIM10pW0NASF0oW0NIMl1bQ0gyXTIpW0NIMl1bQ0gyXVtDQEBIXShbQ0BIXTIzKVtDQEhdM0M0PVtDSF1bQ0gyXUMoW09IXSk9QyhGKVtDSF09W0NIXTQ=

>  <s_glide_docking_method>  (1) 
confgen

>  <s_i_glide_gridfile>  (1) 
gpcr_drd2_6luq_protein_autoprepared_prepared

>  <s_lp_Force_Field>  (1) 
S-OPLS

>  <s_lp_Variant>  (1) 
DiffSBDD_79_num_sample_100-1

>  <s_m_source_file>  (1) 
generated__ligand_DiffSBDD_2026-05-06_prepared.sdf

>  <GenAI_Model>  (1) 
DiffSBDD

>  <Protein>  (1) 
generic_title2

$$$$
DiffSBDD_82_num_sample_100
     RDKit          3D

  0  0  0  0  0  0  0  0  0  0999 V3000
M  V30 BEGIN CTAB
M  V30 COUNTS 64 68 0 0 1
M  V30 BEGIN ATOM
M  V30 1 C 10.975069 8.246769 -8.289429 0
M  V30 2 N 10.765041 3.605840 -17.836908 0
M  V30 3 C 9.113413 6.343447 -12.406815 0
M  V30 4 C 9.442838 5.842238 -8.101819 0
M  V30 5 O 7.434827 4.569618 -9.665174 0
M  V30 6 C 9.656469 8.170245 -7.487350 0
M  V30 7 O 10.201329 4.532112 -19.834039 0
M  V30 8 C 7.597313 4.141421 -13.893650 0 CFG=2
M  V30 9 C 7.637632 1.804212 -15.124419 0
M  V30 10 C 8.198753 5.502919 -18.903772 0
M  V30 11 F 11.749342 9.421112 -6.312358 0
M  V30 12 C 8.686037 3.553141 -16.663265 0 CFG=1
M  V30 13 C 8.068037 4.939489 -16.393397 0 CFG=1
M  V30 14 F 6.902190 6.719994 -17.359852 0
M  V30 15 C 7.322207 5.487369 -17.648428 0
M  V30 16 F 12.337115 8.028202 -10.149392 0
M  V30 17 C 7.136898 4.734081 -12.514420 0 CFG=2
M  V30 18 C 9.283281 6.087161 -9.602308 0
M  V30 19 C 5.810001 5.515996 -12.551303 0
M  V30 20 C 10.162393 6.969113 -10.281841 0
M  V30 21 C 8.299964 5.375433 -10.325737 0
M  V30 22 O 11.965805 8.964238 -7.670009 0
M  V30 23 C 11.144326 4.136731 -18.933316 0
M  V30 24 C 9.020480 4.242652 -19.161595 0 CFG=2
M  V30 25 C 7.207922 5.039136 -15.106573 0
M  V30 26 C 8.211987 5.505109 -11.730999 0
M  V30 27 C 12.569907 4.375229 -19.324735 0
M  V30 28 C 7.708627 2.367535 -16.551032 0
M  V30 29 N 9.419815 3.566138 -17.926539 0
M  V30 30 C 8.255873 6.567433 -19.724157 0
M  V30 31 C 11.166012 7.766430 -9.542104 0
M  V30 32 C 7.001160 2.716085 -14.062140 0
M  V30 33 F 6.235793 4.759366 -17.899231 0
M  V30 34 C 10.085574 7.067850 -11.689175 0
M  V30 35 N 9.035200 6.890348 -7.208590 0
M  V30 36 H 9.053453 6.442007 -13.477655 0
M  V30 37 H 10.492044 5.613735 -7.909014 0
M  V30 38 H 8.914210 4.938530 -7.802849 0
M  V30 39 H 6.886199 5.054214 -9.064433 0
M  V30 40 H 9.679038 8.728506 -6.554830 0
M  V30 41 H 8.937269 8.712667 -8.101763 0
M  V30 42 H 8.681028 4.029177 -13.847579 0
M  V30 43 H 7.066820 0.875362 -15.153441 0
M  V30 44 H 8.634235 1.508914 -14.797657 0
M  V30 45 H 9.434789 3.408683 -15.891690 0
M  V30 46 H 8.920253 5.601818 -16.229073 0
M  V30 47 H 6.919915 3.869361 -11.892061 0
M  V30 48 H 5.443919 5.701107 -11.540629 0
M  V30 49 H 5.037539 4.958559 -13.080421 0
M  V30 50 H 5.918902 6.488635 -13.030309 0
M  V30 51 H 8.423658 3.541291 -19.746092 0
M  V30 52 H 7.238037 6.086657 -14.809158 0
M  V30 53 H 6.164173 4.854063 -15.355868 0
M  V30 54 H 13.254008 3.870522 -18.641836 0
M  V30 55 H 12.797947 5.440898 -19.305461 0
M  V30 56 H 12.763186 4.004434 -20.331175 0
M  V30 57 H 6.714759 2.615272 -16.918372 0
M  V30 58 H 8.060191 1.558916 -17.193393 0
M  V30 59 H 7.673037 7.453929 -19.530125 0
M  V30 60 H 8.885947 6.561082 -20.601144 0
M  V30 61 H 7.092839 2.163329 -13.126823 0
M  V30 62 H 5.931440 2.796524 -14.236977 0
M  V30 63 H 10.759148 7.719341 -12.217991 0
M  V30 64 H 8.015778 6.974761 -7.219038 0
M  V30 END ATOM
M  V30 BEGIN BOND
M  V30 1 1 6 1
M  V30 2 1 13 12
M  V30 3 1 15 10
M  V30 4 1 15 13
M  V30 5 1 15 14
M  V30 6 1 17 8
M  V30 7 1 18 4
M  V30 8 1 19 17
M  V30 9 2 20 18
M  V30 10 1 21 5
M  V30 11 1 21 18
M  V30 12 1 22 1
M  V30 13 1 22 11
M  V30 14 2 23 2
M  V30 15 1 23 7
M  V30 16 1 24 7
M  V30 17 1 24 10
M  V30 18 1 25 8
M  V30 19 1 25 13
M  V30 20 1 26 3
M  V30 21 1 26 17
M  V30 22 2 26 21
M  V30 23 1 27 23
M  V30 24 1 28 9
M  V30 25 1 28 12
M  V30 26 1 29 2
M  V30 27 1 29 12
M  V30 28 1 29 24
M  V30 29 2 30 10
M  V30 30 2 31 1
M  V30 31 1 31 16
M  V30 32 1 31 20
M  V30 33 1 32 8
M  V30 34 1 32 9
M  V30 35 1 33 15
M  V30 36 2 34 3
M  V30 37 1 34 20
M  V30 38 1 35 4
M  V30 39 1 35 6
M  V30 40 1 36 3
M  V30 41 1 37 4
M  V30 42 1 38 4
M  V30 43 1 39 5
M  V30 44 1 40 6
M  V30 45 1 41 6
M  V30 46 1 8 42 CFG=1
M  V30 47 1 43 9
M  V30 48 1 44 9
M  V30 49 1 12 45 CFG=1
M  V30 50 1 13 46 CFG=1
M  V30 51 1 17 47 CFG=1
M  V30 52 1 48 19
M  V30 53 1 49 19
M  V30 54 1 50 19
M  V30 55 1 24 51 CFG=3
M  V30 56 1 52 25
M  V30 57 1 53 25
M  V30 58 1 54 27
M  V30 59 1 55 27
M  V30 60 1 56 27
M  V30 61 1 57 28
M  V30 62 1 58 28
M  V30 63 1 59 30
M  V30 64 1 60 30
M  V30 65 1 61 32
M  V30 66 1 62 32
M  V30 67 1 63 34
M  V30 68 1 64 35
M  V30 END BOND
M  V30 END CTAB
M  END
>  <i_epik_Tot_Q>  (1) 
0

>  <i_epik_Tot_abs_Q>  (1) 
0

>  <i_i_glide_confnum>  (1) 
3

>  <i_i_glide_lignum>  (1) 
168

>  <i_i_glide_posenum>  (1) 
355

>  <i_i_glide_rotatable_bonds>  (1) 
4

>  <i_lp_mmshare_version>  (1) 
72125

>  <i_m_source_file_index>  (1) 
83

>  <i_f3d_flags>  (1) 
0

>  <num_sample>  (1) 
100

>  <b_lp_Chiralities_Consistent>  (1) 
1

>  <r_epik_Charging_Adjusted_Penalty>  (1) 
0.046558445642634526

>  <r_epik_Ionization_Penalty>  (1) 
0.046507495434493687

>  <r_epik_Ionization_Penalty_Charging>  (1) 
0

>  <r_epik_Ionization_Penalty_Neutral>  (1) 
0.046507495434493687

>  <r_epik_State_Penalty>  (1) 
0.046558445642634526

>  <r_glide_ring_energy>  (1) 
0

>  <r_i_docking_score>  (1) 
-5.2315825630354489

>  <r_i_glide_ecoul>  (1) 
-2.6724923807591043

>  <r_i_glide_eff_state_penalty>  (1) 
0.046558445642634526

>  <r_i_glide_einternal>  (1) 
6.6947973964560816

>  <r_i_glide_emodel>  (1) 
-38.100311215993287

>  <r_i_glide_emodel_strain>  (1) 
2.0567454749450746

>  <r_i_glide_energy>  (1) 
-33.842786558244356

>  <r_i_glide_erotb>  (1) 
0.1660487774470758

>  <r_i_glide_esite>  (1) 
0

>  <r_i_glide_evdw>  (1) 
-31.17029417748525

>  <r_i_glide_gscore>  (1) 
-5.2781410086780838

>  <r_i_glide_gscore_strain>  (1) 
0

>  <r_i_glide_hbond>  (1) 
-0.40166467937952394

>  <r_i_glide_ligand_efficiency>  (1) 
-0.14947378751529855

>  <r_i_glide_ligand_efficiency_ln>  (1) 
-1.1484484813054954

>  <r_i_glide_ligand_efficiency_sa>  (1) 
-0.48893867059758095

>  <r_i_glide_lipo>  (1) 
-1.432227004372292

>  <r_i_glide_metal>  (1) 
-0

>  <r_i_glide_rewards>  (1) 
-1.6509095363852155

>  <r_lp_Energy>  (1) 
56.444668

>  <r_lp_tautomer_probability>  (1) 
0.99999999486000002

>  <s_epik_Chemistry_Notes>  (1) 
This compound has an imine and may undergo hydrolysis. This compound contains an acetal/aminal-like group ( X-CH(R)-Y where X, Y are N, S, or O) that may be acid/base labile, releasing an aldehyde.

>  <s_epik_cmdline>  (1) 
J2VwaWtfcHl0aG9uJywgJy1waHQnLCAnMS4wJywgJy1waCcsICc3LjQnLCAnLXRuJywgJzgnLCAnLW1hJywgJzUwMCcsICctaW1hZScsICc8aW5maWxlLm1hZT4nLCAnLW9tYWUnLCAnPG91dGZpbGUubWFlPic=

>  <s_epik_input>  (1) 
W0NIMl0xW05IXVtDSDJdQyhPRik9QyhGKWMoYzEyKVtjSF1bY0hdYyhjMltPSF0pW0NASF0oW0NIM10pW0NAQEhdKFtDSDJdW0NIMl1bQ0gyXTMpW0NIMl1bQ0BASF0oW0NAQEhdMzQpQyhGKShGKUMoPVtDSDJdKVtDQEBIXTVONE49QyhPNSlbQ0gzXQ==

>  <s_glide_docking_method>  (1) 
confgen

>  <s_i_glide_gridfile>  (1) 
gpcr_drd2_6luq_protein_autoprepared_prepared

>  <s_lp_Force_Field>  (1) 
S-OPLS

>  <s_lp_Variant>  (1) 
DiffSBDD_82_num_sample_100-2

>  <s_m_source_file>  (1) 
generated__ligand_DiffSBDD_2026-05-06_prepared.sdf

>  <GenAI_Model>  (1) 
DiffSBDD

>  <Protein>  (1) 
generic_title2

$$$$
DiffSBDD_55_num_sample_100
     RDKit          3D

  0  0  0  0  0  0  0  0  0  0999 V3000
M  V30 BEGIN CTAB
M  V30 COUNTS 51 54 0 0 1
M  V30 BEGIN ATOM
M  V30 1 O 12.974319 8.147275 -3.681447 0
M  V30 2 C 7.307118 6.315310 -13.967345 0
M  V30 3 C 12.167477 8.595813 -7.509359 0
M  V30 4 C 12.249748 8.169302 -10.342927 0
M  V30 5 C 9.985122 7.673627 -5.949592 0 CFG=2
M  V30 6 C 11.086265 8.372817 -5.162213 0 CFG=1
M  V30 7 S 7.941953 4.381871 -12.200169 0
M  V30 8 C 6.895593 4.891878 -13.584574 0
M  V30 9 C 7.835083 6.967617 -12.697340 0
M  V30 10 C 11.848301 7.338016 -1.891709 0
M  V30 11 N 10.904946 8.342236 -8.250890 0 CFG=1 CHG=1
M  V30 12 C 11.921320 7.400827 -4.291671 0 CFG=2
M  V30 13 C 11.968177 9.211491 -6.112684 0 CFG=2
M  V30 14 C 11.434832 6.569227 -3.125316 0
M  V30 15 C 12.529223 8.584954 -2.415492 0
M  V30 16 C 9.320967 6.229325 -10.691839 0
M  V30 17 C 11.119225 7.571260 -9.505456 0 CFG=1
M  V30 18 C 8.030325 6.047042 -11.491018 0 CFG=2
M  V30 19 C 10.166744 6.438501 -6.807301 0
M  V30 20 O 8.082384 8.169304 -12.647579 0
M  V30 21 O 11.461065 10.517719 -6.209830 0
M  V30 22 C 9.834021 7.420029 -10.312134 0
M  V30 23 C 9.810824 7.755759 -7.445448 0 CFG=1
M  V30 24 H 8.112388 6.296163 -14.701666 0
M  V30 25 H 6.476068 6.881922 -14.387557 0
M  V30 26 H 12.789263 9.277826 -8.082244 0
M  V30 27 H 12.723955 7.662087 -7.467375 0
M  V30 28 H 12.259581 7.737743 -11.343407 0
M  V30 29 H 12.146503 9.249213 -10.440623 0
M  V30 30 H 13.229582 7.971915 -9.905314 0
M  V30 31 H 9.033955 7.769375 -5.491671 0
M  V30 32 H 10.634861 9.080767 -4.473356 0
M  V30 33 H 7.002773 4.199024 -14.419188 0
M  V30 34 H 5.852338 4.872174 -13.266443 0
M  V30 35 H 12.588963 6.736654 -1.363520 0
M  V30 36 H 11.015422 7.568450 -1.227386 0
M  V30 37 H 12.234832 6.645903 -5.002527 0
M  V30 38 H 12.959501 9.369301 -5.687950 0
M  V30 39 H 10.386036 6.276962 -3.178646 0
M  V30 40 H 11.992248 5.634043 -3.119358 0
M  V30 41 H 13.357767 8.912247 -1.787166 0
M  V30 42 H 11.826551 9.413027 -2.520501 0
M  V30 43 H 9.834974 5.321335 -10.418606 0
M  V30 44 H 11.434293 6.569409 -9.218644 0
M  V30 45 H 7.179304 6.169139 -10.821026 0
M  V30 46 H 9.375835 5.693963 -6.767301 0
M  V30 47 H 11.167386 6.033488 -6.932672 0
M  V30 48 H 10.517226 10.487307 -6.193687 0
M  V30 49 H 9.322975 8.333109 -10.577346 0
M  V30 50 H 8.813184 7.892314 -7.857980 0
M  V30 51 H 10.569983 9.253664 -8.528141 0
M  V30 END ATOM
M  V30 BEGIN BOND
M  V30 1 1 6 5
M  V30 2 1 8 2
M  V30 3 1 8 7
M  V30 4 1 9 2
M  V30 5 1 11 3
M  V30 6 1 12 1
M  V30 7 1 12 6
M  V30 8 1 13 3
M  V30 9 1 13 6
M  V30 10 1 14 10
M  V30 11 1 14 12
M  V30 12 1 15 1
M  V30 13 1 15 10
M  V30 14 1 17 4
M  V30 15 1 17 11
M  V30 16 1 18 7
M  V30 17 1 18 9
M  V30 18 1 18 16
M  V30 19 1 19 5
M  V30 20 2 20 9
M  V30 21 1 21 13
M  V30 22 2 22 16
M  V30 23 1 22 17
M  V30 24 1 23 5
M  V30 25 1 23 11
M  V30 26 1 23 19
M  V30 27 1 24 2
M  V30 28 1 25 2
M  V30 29 1 26 3
M  V30 30 1 27 3
M  V30 31 1 28 4
M  V30 32 1 29 4
M  V30 33 1 30 4
M  V30 34 1 5 31 CFG=1
M  V30 35 1 6 32 CFG=1
M  V30 36 1 33 8
M  V30 37 1 34 8
M  V30 38 1 35 10
M  V30 39 1 36 10
M  V30 40 1 12 37 CFG=3
M  V30 41 1 13 38 CFG=1
M  V30 42 1 39 14
M  V30 43 1 40 14
M  V30 44 1 41 15
M  V30 45 1 42 15
M  V30 46 1 43 16
M  V30 47 1 17 44 CFG=1
M  V30 48 1 18 45 CFG=1
M  V30 49 1 46 19
M  V30 50 1 47 19
M  V30 51 1 48 21
M  V30 52 1 49 22
M  V30 53 1 23 50 CFG=1
M  V30 54 1 11 51 CFG=3
M  V30 END BOND
M  V30 END CTAB
M  END
>  <i_epik_Tot_Q>  (1) 
1

>  <i_epik_Tot_abs_Q>  (1) 
1

>  <i_i_glide_confnum>  (1) 
132

>  <i_i_glide_lignum>  (1) 
105

>  <i_i_glide_posenum>  (1) 
4

>  <i_i_glide_rotatable_bonds>  (1) 
5

>  <i_lp_mmshare_version>  (1) 
72125

>  <i_m_source_file_index>  (1) 
56

>  <i_f3d_flags>  (1) 
0

>  <num_sample>  (1) 
100

>  <b_lp_Chiralities_Consistent>  (1) 
1

>  <r_epik_Charging_Adjusted_Penalty>  (1) 
0.1887110856522376

>  <r_epik_Ionization_Penalty>  (1) 
0.094355642401006162

>  <r_epik_Ionization_Penalty_Charging>  (1) 
0.094355542826118813

>  <r_epik_Ionization_Penalty_Neutral>  (1) 
9.9574887353862298e-08

>  <r_epik_State_Penalty>  (1) 
0.094355542826118799

>  <r_glide_ring_energy>  (1) 
1.2361918707854103

>  <r_i_docking_score>  (1) 
-5.2204084045311845

>  <r_i_glide_ecoul>  (1) 
-0.84145393087556686

>  <r_i_glide_eff_state_penalty>  (1) 
0.094355542826118799

>  <r_i_glide_einternal>  (1) 
5.7831206211149677

>  <r_i_glide_emodel>  (1) 
-33.292856303862472

>  <r_i_glide_emodel_strain>  (1) 
2.7453113802762275

>  <r_i_glide_energy>  (1) 
-26.222366396838019

>  <r_i_glide_erotb>  (1) 
0.49519417565235591

>  <r_i_glide_esite>  (1) 
-0.036363343914751066

>  <r_i_glide_evdw>  (1) 
-25.380912465962453

>  <r_i_glide_gscore>  (1) 
-5.314763947357303

>  <r_i_glide_gscore_strain>  (1) 
0

>  <r_i_glide_hbond>  (1) 
0

>  <r_i_glide_ligand_efficiency>  (1) 
-0.2269742784578776

>  <r_i_glide_ligand_efficiency_ln>  (1) 
-1.2623420882619418

>  <r_i_glide_ligand_efficiency_sa>  (1) 
-0.64548465578199254

>  <r_i_glide_lipo>  (1) 
-2.3771453388927211

>  <r_i_glide_metal>  (1) 
-0

>  <r_i_glide_rewards>  (1) 
-2.0011857272727283

>  <r_lp_Energy>  (1) 
18.143661999999999

>  <r_lp_tautomer_probability>  (1) 
0.99995000000000001

>  <s_epik_cmdline>  (1) 
J2VwaWtfcHl0aG9uJywgJy1waHQnLCAnMS4wJywgJy1waCcsICc3LjQnLCAnLXRuJywgJzgnLCAnLW1hJywgJzUwMCcsICctaW1hZScsICc8aW5maWxlLm1hZT4nLCAnLW9tYWUnLCAnPG91dGZpbGUubWFlPic=

>  <s_epik_input>  (1) 
W0NIMl0xW0NIMl1bQ0gyXU9bQ0BASF0xW0NASF0yW0NASF0oW09IXSlbQ0gyXU4oW0NASF0oW0NASF0yMylbQ0gyXTMpW0NASF0oW0NIM10pXFtDSF09W0NIXVxbQ0BASF00U1tDSDJdW0NIMl1DND1P

>  <s_glide_docking_method>  (1) 
confgen

>  <s_i_glide_gridfile>  (1) 
gpcr_drd2_6luq_protein_autoprepared_prepared

>  <s_lp_Force_Field>  (1) 
S-OPLS

>  <s_lp_Variant>  (1) 
DiffSBDD_55_num_sample_100-6

>  <s_m_source_file>  (1) 
generated__ligand_DiffSBDD_2026-05-06_prepared.sdf

>  <GenAI_Model>  (1) 
DiffSBDD

>  <Protein>  (1) 
generic_title2

$$$$
DiffSBDD_58_num_sample_100
     RDKit          3D

  0  0  0  0  0  0  0  0  0  0999 V3000
M  V30 BEGIN CTAB
M  V30 COUNTS 48 50 0 0 1
M  V30 BEGIN ATOM
M  V30 1 C 10.021882 7.737749 -9.558255 0
M  V30 2 C 11.817929 8.609858 -5.006780 0
M  V30 3 C 9.629212 4.943897 -11.921213 0
M  V30 4 C 8.873492 5.659880 -8.391619 0
M  V30 5 C 10.055099 6.649693 -8.454053 0 CFG=2
M  V30 6 C 9.810357 6.444061 -12.223930 0 CFG=1
M  V30 7 C 12.237218 8.366134 -2.627581 0
M  V30 8 C 8.403109 7.034536 -12.420928 0
M  V30 9 C 7.451825 5.991088 -11.825462 0 CFG=1
M  V30 10 N 12.634788 8.923401 -1.423548 0
M  V30 11 O 11.036253 6.704660 -6.273893 0
M  V30 12 C 10.153212 7.313966 -7.082096 0
M  V30 13 C 11.839387 7.017714 -2.688299 0
M  V30 14 O 9.474247 8.299866 -6.781837 0
M  V30 15 C 11.419497 7.257806 -5.076440 0
M  V30 16 O 6.373763 4.063191 -13.670958 0
M  V30 17 C 12.229920 9.152892 -3.786850 0
M  V30 18 S 10.918777 7.369271 -11.091015 0
M  V30 19 C 7.783638 4.069647 -13.471046 0
M  V30 20 C 5.831799 5.379252 -13.699762 0
M  V30 21 C 5.997545 6.036554 -12.321474 0
M  V30 22 C 11.434072 6.466089 -3.913578 0
M  V30 23 C 8.130906 4.639041 -12.078353 0 CFG=1
M  V30 24 H 9.034839 8.044054 -9.817770 0
M  V30 25 H 10.489497 8.652008 -9.190159 0
M  V30 26 H 11.815133 9.224337 -5.892931 0
M  V30 27 H 10.234190 4.321901 -12.581062 0
M  V30 28 H 9.959012 4.710246 -10.917848 0
M  V30 29 H 8.961072 5.006857 -7.523421 0
M  V30 30 H 7.919110 6.168893 -8.303749 0
M  V30 31 H 8.802661 5.005930 -9.249577 0
M  V30 32 H 10.972781 6.081111 -8.589716 0
M  V30 33 H 10.347846 6.495193 -13.164802 0
M  V30 34 H 8.269182 8.022114 -11.984432 0
M  V30 35 H 8.206216 7.137232 -13.487831 0
M  V30 36 H 7.434587 6.161981 -10.751117 0
M  V30 37 H 12.761700 8.346576 -0.607149 0
M  V30 38 H 13.079874 9.842176 -1.400007 0
M  V30 39 H 11.845152 6.406710 -1.797183 0
M  V30 40 H 12.539369 10.169167 -3.740389 0
M  V30 41 H 8.269129 4.640327 -14.265208 0
M  V30 42 H 8.153975 3.047187 -13.553310 0
M  V30 43 H 6.303891 5.972811 -14.484995 0
M  V30 44 H 4.773302 5.319627 -13.950329 0
M  V30 45 H 5.639568 7.064828 -12.348071 0
M  V30 46 H 5.366264 5.509509 -11.604106 0
M  V30 47 H 11.131435 5.435179 -3.964324 0
M  V30 48 H 7.807766 3.915994 -11.329881 0
M  V30 END ATOM
M  V30 BEGIN BOND
M  V30 1 1 5 1
M  V30 2 1 5 4
M  V30 3 1 6 3
M  V30 4 1 8 6
M  V30 5 1 9 8
M  V30 6 1 10 7
M  V30 7 1 12 5
M  V30 8 1 12 11
M  V30 9 1 13 7
M  V30 10 2 14 12
M  V30 11 2 15 2
M  V30 12 1 15 11
M  V30 13 1 17 2
M  V30 14 2 17 7
M  V30 15 1 18 1
M  V30 16 1 18 6
M  V30 17 1 19 16
M  V30 18 1 20 16
M  V30 19 1 21 9
M  V30 20 1 21 20
M  V30 21 2 22 13
M  V30 22 1 22 15
M  V30 23 1 23 3
M  V30 24 1 23 9
M  V30 25 1 23 19
M  V30 26 1 24 1
M  V30 27 1 25 1
M  V30 28 1 26 2
M  V30 29 1 27 3
M  V30 30 1 28 3
M  V30 31 1 29 4
M  V30 32 1 30 4
M  V30 33 1 31 4
M  V30 34 1 5 32 CFG=3
M  V30 35 1 6 33 CFG=3
M  V30 36 1 34 8
M  V30 37 1 35 8
M  V30 38 1 9 36 CFG=1
M  V30 39 1 37 10
M  V30 40 1 38 10
M  V30 41 1 39 13
M  V30 42 1 40 17
M  V30 43 1 41 19
M  V30 44 1 42 19
M  V30 45 1 43 20
M  V30 46 1 44 20
M  V30 47 1 45 21
M  V30 48 1 46 21
M  V30 49 1 47 22
M  V30 50 1 23 48 CFG=1
M  V30 END BOND
M  V30 END CTAB
M  END
>  <i_epik_Tot_Q>  (1) 
0

>  <i_epik_Tot_abs_Q>  (1) 
0

>  <i_i_glide_confnum>  (1) 
340

>  <i_i_glide_lignum>  (1) 
116

>  <i_i_glide_posenum>  (1) 
33

>  <i_i_glide_rotatable_bonds>  (1) 
6

>  <i_lp_mmshare_version>  (1) 
72125

>  <i_m_source_file_index>  (1) 
59

>  <i_f3d_flags>  (1) 
0

>  <num_sample>  (1) 
100

>  <b_lp_Chiralities_Consistent>  (1) 
1

>  <r_epik_Charging_Adjusted_Penalty>  (1) 
0.0033808002230057204

>  <r_epik_Ionization_Penalty>  (1) 
0.0033808103155764289

>  <r_epik_Ionization_Penalty_Charging>  (1) 
0

>  <r_epik_Ionization_Penalty_Neutral>  (1) 
0.0033808103155764289

>  <r_epik_State_Penalty>  (1) 
0.0033808002230057204

>  <r_glide_ring_energy>  (1) 
0.00081652608624333781

>  <r_i_docking_score>  (1) 
-5.2173482783547938

>  <r_i_glide_ecoul>  (1) 
-5.3106519509736776

>  <r_i_glide_eff_state_penalty>  (1) 
0.0033808002230057204

>  <r_i_glide_einternal>  (1) 
6.2600566463863858

>  <r_i_glide_emodel>  (1) 
-45.022324201554049

>  <r_i_glide_emodel_strain>  (1) 
0.28412333691608183

>  <r_i_glide_energy>  (1) 
-36.705283927052442

>  <r_i_glide_erotb>  (1) 
0.83854581213583013

>  <r_i_glide_esite>  (1) 
0

>  <r_i_glide_evdw>  (1) 
-31.394631976078767

>  <r_i_glide_gscore>  (1) 
-5.2207290785777998

>  <r_i_glide_gscore_strain>  (1) 
0

>  <r_i_glide_hbond>  (1) 
-0.32000000000000001

>  <r_i_glide_ligand_efficiency>  (1) 
-0.22684122949368668

>  <r_i_glide_ligand_efficiency_ln>  (1) 
-1.2616021220048004

>  <r_i_glide_ligand_efficiency_sa>  (1) 
-0.64510628222602662

>  <r_i_glide_lipo>  (1) 
-2.1554579548180128

>  <r_i_glide_metal>  (1) 
-0

>  <r_i_glide_rewards>  (1) 
-1.2174875444456266

>  <r_lp_Energy>  (1) 
27.491351999999999

>  <s_epik_cmdline>  (1) 
J2VwaWtfcHl0aG9uJywgJy1waHQnLCAnMS4wJywgJy1waCcsICc3LjQnLCAnLXRuJywgJzgnLCAnLW1hJywgJzUwMCcsICctaW1hZScsICc8aW5maWxlLm1hZT4nLCAnLW9tYWUnLCAnPG91dGZpbGUubWFlPic=

>  <s_epik_input>  (1) 
W0NIMl0xW0NIMl1PW0NIMl1bQ0BIXShbQ0BIXTEyKVtDSDJdW0NAQEhdKFtDSDJdMilTW0NIMl1bQ0BIXShbQ0gzXSlDKD1PKU9jKFtjSF1bY0hdMylbY0hdW2NIXWMzW05IMl0=

>  <s_glide_docking_method>  (1) 
confgen

>  <s_i_glide_gridfile>  (1) 
gpcr_drd2_6luq_protein_autoprepared_prepared

>  <s_lp_Force_Field>  (1) 
S-OPLS

>  <s_lp_Variant>  (1) 
DiffSBDD_58_num_sample_100-1

>  <s_m_source_file>  (1) 
generated__ligand_DiffSBDD_2026-05-06_prepared.sdf

>  <GenAI_Model>  (1) 
DiffSBDD

>  <Protein>  (1) 
generic_title2

$$$$
DiffSBDD_15_num_sample_100
     RDKit          3D

  0  0  0  0  0  0  0  0  0  0999 V3000
M  V30 BEGIN CTAB
M  V30 COUNTS 48 51 0 0 1
M  V30 BEGIN ATOM
M  V30 1 C 5.939205 6.014135 -14.145052 0
M  V30 2 C 7.402313 5.513249 -18.478821 0
M  V30 3 C 5.336004 6.751077 -16.419009 0
M  V30 4 C 9.397673 6.055084 -11.426221 0
M  V30 5 C 7.935250 4.763994 -13.585675 0
M  V30 6 C 6.758987 5.410397 -13.177944 0
M  V30 7 C 5.956197 5.769251 -18.650187 0
M  V30 8 C 6.330754 5.457836 -11.746495 0
M  V30 9 C 9.910871 7.340162 -10.770029 0
M  V30 10 C 5.217535 6.678154 -17.748776 0
M  V30 11 C 10.127357 6.145204 -7.091962 0
M  V30 12 C 8.305785 4.747875 -14.936706 0
M  V30 13 C 10.522820 7.102782 -9.378977 0 CFG=2
M  V30 14 C 6.275208 6.012636 -15.520881 0
M  V30 15 C 8.044508 5.307309 -17.323652 0
M  V30 16 F 11.599435 9.176736 -9.428820 0
M  V30 17 C 9.546305 6.300717 -8.505210 0 CFG=1
M  V30 18 N 8.507810 5.320134 -10.516731 0
M  V30 19 C 10.615636 7.471599 -6.495648 0
M  V30 20 C 7.109548 5.369279 -10.626021 0
M  V30 21 F 9.646375 8.969301 -8.502893 0
M  V30 22 C 7.505047 5.357989 -15.931739 0
M  V30 23 O 11.473359 8.134205 -7.414027 0
M  V30 24 C 10.834711 8.406057 -8.656614 0
M  V30 25 C 9.115680 5.006909 -9.220520 0
M  V30 26 H 5.034841 6.508581 -13.825908 0
M  V30 27 H 7.966277 5.430331 -19.396821 0
M  V30 28 H 4.666092 7.428879 -15.909749 0
M  V30 29 H 10.222889 5.418554 -11.747781 0
M  V30 30 H 8.899892 6.445695 -12.303757 0
M  V30 31 H 8.559542 4.268002 -12.861557 0
M  V30 32 H 5.852382 6.199476 -19.646798 0
M  V30 33 H 5.434848 4.812646 -18.691672 0
M  V30 34 H 5.266337 5.561786 -11.595599 0
M  V30 35 H 10.635111 7.815317 -11.429202 0
M  V30 36 H 9.070216 8.032022 -10.690752 0
M  V30 37 H 4.470422 7.294756 -18.228116 0
M  V30 38 H 10.947382 5.426442 -7.106984 0
M  V30 39 H 9.355544 5.764635 -6.427342 0
M  V30 40 H 9.223567 4.256510 -15.223469 0
M  V30 41 H 11.459060 6.569302 -9.491555 0
M  V30 42 H 9.095657 5.065769 -17.389802 0
M  V30 43 H 8.634839 6.878853 -8.375817 0
M  V30 44 H 11.160919 7.286634 -5.570019 0
M  V30 45 H 9.771173 8.111484 -6.233638 0
M  V30 46 H 6.634838 5.353321 -9.658232 0
M  V30 47 H 8.396936 4.478421 -8.593957 0
M  V30 48 H 9.957257 4.332355 -9.363721 0
M  V30 END ATOM
M  V30 BEGIN BOND
M  V30 1 2 6 1
M  V30 2 1 6 5
M  V30 3 1 7 2
M  V30 4 1 8 6
M  V30 5 1 9 4
M  V30 6 2 10 3
M  V30 7 1 10 7
M  V30 8 2 12 5
M  V30 9 1 13 9
M  V30 10 1 14 1
M  V30 11 1 14 3
M  V30 12 2 15 2
M  V30 13 1 17 11
M  V30 14 1 17 13
M  V30 15 1 18 4
M  V30 16 1 19 11
M  V30 17 2 20 8
M  V30 18 1 20 18
M  V30 19 1 22 12
M  V30 20 2 22 14
M  V30 21 1 22 15
M  V30 22 1 23 19
M  V30 23 1 24 13
M  V30 24 1 24 16
M  V30 25 1 24 21
M  V30 26 1 24 23
M  V30 27 1 25 17
M  V30 28 1 25 18
M  V30 29 1 26 1
M  V30 30 1 27 2
M  V30 31 1 28 3
M  V30 32 1 29 4
M  V30 33 1 30 4
M  V30 34 1 31 5
M  V30 35 1 32 7
M  V30 36 1 33 7
M  V30 37 1 34 8
M  V30 38 1 35 9
M  V30 39 1 36 9
M  V30 40 1 37 10
M  V30 41 1 38 11
M  V30 42 1 39 11
M  V30 43 1 40 12
M  V30 44 1 13 41 CFG=3
M  V30 45 1 42 15
M  V30 46 1 17 43 CFG=1
M  V30 47 1 44 19
M  V30 48 1 45 19
M  V30 49 1 46 20
M  V30 50 1 47 25
M  V30 51 1 48 25
M  V30 END BOND
M  V30 END CTAB
M  END
>  <i_epik_Tot_Q>  (1) 
0

>  <i_epik_Tot_abs_Q>  (1) 
0

>  <i_i_glide_confnum>  (1) 
8

>  <i_i_glide_lignum>  (1) 
25

>  <i_i_glide_posenum>  (1) 
271

>  <i_i_glide_rotatable_bonds>  (1) 
2

>  <i_lp_mmshare_version>  (1) 
72125

>  <i_m_source_file_index>  (1) 
16

>  <i_f3d_flags>  (1) 
0

>  <num_sample>  (1) 
100

>  <b_lp_Chiralities_Consistent>  (1) 
1

>  <r_epik_Charging_Adjusted_Penalty>  (1) 
0.41067983895260396

>  <r_epik_Ionization_Penalty>  (1) 
0.00043588865487499098

>  <r_epik_Ionization_Penalty_Charging>  (1) 
0

>  <r_epik_Ionization_Penalty_Neutral>  (1) 
0.00043588865487499098

>  <r_epik_State_Penalty>  (1) 
0.41067983895260396

>  <r_glide_ring_energy>  (1) 
0.0078002469909557517

>  <r_i_docking_score>  (1) 
-5.2156571492948283

>  <r_i_glide_ecoul>  (1) 
0.069409506725097908

>  <r_i_glide_eff_state_penalty>  (1) 
0.41067983895260396

>  <r_i_glide_einternal>  (1) 
4.0397026474812119

>  <r_i_glide_emodel>  (1) 
-37.510177109237283

>  <r_i_glide_emodel_strain>  (1) 
0

>  <r_i_glide_energy>  (1) 
-31.397699628322385

>  <r_i_glide_erotb>  (1) 
0.32177656458331499

>  <r_i_glide_esite>  (1) 
-0.12591179512307668

>  <r_i_glide_evdw>  (1) 
-31.467109135047483

>  <r_i_glide_gscore>  (1) 
-5.6263369882474326

>  <r_i_glide_gscore_strain>  (1) 
0

>  <r_i_glide_hbond>  (1) 
0

>  <r_i_glide_ligand_efficiency>  (1) 
-0.20862628597179314

>  <r_i_glide_ligand_efficiency_ln>  (1) 
-1.2362670450149518

>  <r_i_glide_ligand_efficiency_sa>  (1) 
-0.61002696083899322

>  <r_i_glide_lipo>  (1) 
-2.0500751885742465

>  <r_i_glide_metal>  (1) 
-0

>  <r_i_glide_rewards>  (1) 
-2.2091825383898138

>  <r_lp_Energy>  (1) 
28.753394999999998

>  <r_lp_tautomer_probability>  (1) 
0.5

>  <s_epik_cmdline>  (1) 
J2VwaWtfcHl0aG9uJywgJy1waHQnLCAnMS4wJywgJy1waCcsICc3LjQnLCAnLXRuJywgJzgnLCAnLW1hJywgJzUwMCcsICctaW1hZScsICc8aW5maWxlLm1hZT4nLCAnLW9tYWUnLCAnPG91dGZpbGUubWFlPic=

>  <s_epik_input>  (1) 
W0NIXTE9W0NIXVtDSDJdW0NIXT1bQ0hdYyhjMTIpW2NIXVtjSF1jKFtjSF0yKS9bQ0hdPVtDSF1cTihbQ0gyXVtDSDJdMylbQ0gyXVtDQEhdKFtDQEBIXTM0KVtDSDJdW0NIMl1PQzQoRilG

>  <s_glide_docking_method>  (1) 
confgen

>  <s_i_glide_gridfile>  (1) 
gpcr_drd2_6luq_protein_autoprepared_prepared

>  <s_lp_Force_Field>  (1) 
S-OPLS

>  <s_lp_Variant>  (1) 
DiffSBDD_15_num_sample_100-2

>  <s_m_source_file>  (1) 
generated__ligand_DiffSBDD_2026-05-06_prepared.sdf

>  <GenAI_Model>  (1) 
DiffSBDD

>  <Protein>  (1) 
generic_title2

$$$$
DiffSBDD_53_num_sample_100
     RDKit          3D

  0  0  0  0  0  0  0  0  0  0999 V3000
M  V30 BEGIN CTAB
M  V30 COUNTS 57 60 0 0 1
M  V30 BEGIN ATOM
M  V30 1 N 9.834058 6.501751 -8.691233 0
M  V30 2 C 8.431509 5.712601 -20.835802 0
M  V30 3 C 7.277853 4.569311 -10.635893 0
M  V30 4 C 10.878063 7.369559 -8.731967 0
M  V30 5 O 5.834841 6.252469 -14.037098 0
M  V30 6 C 7.724321 3.719126 -15.491782 0
M  V30 7 C 7.634115 4.851525 -11.965713 0
M  V30 8 O 4.430140 8.166375 -21.891976 0
M  V30 9 C 5.703389 3.752173 -20.342929 0
M  V30 10 C 6.976658 6.107822 -20.489092 0 CFG=2
M  V30 11 F 6.390162 4.725880 -22.301919 0
M  V30 12 C 11.411472 7.831435 -7.374813 0
M  V30 13 F 11.437830 6.807731 -6.519519 0
M  V30 14 C 6.619920 7.428715 -21.223697 0
M  V30 15 C 8.023175 5.108344 -9.573579 0
M  V30 16 C 9.124476 5.949945 -9.829465 0
M  V30 17 F 12.634856 8.344553 -7.506845 0
M  V30 18 C 6.493407 5.235401 -14.251666 0
M  V30 19 N 6.817240 5.614538 -16.707067 0
M  V30 20 C 5.152626 7.237567 -21.537688 0
M  V30 21 C 5.858229 6.708794 -16.799396 0
M  V30 22 C 9.487908 6.236952 -11.177737 0
M  V30 23 C 6.826593 4.250973 -13.105740 0 CFG=1
M  V30 24 C 7.434973 5.293313 -17.981798 0
M  V30 25 C 4.634834 5.829547 -21.378983 0
M  V30 26 C 7.034838 4.843273 -15.549655 0
M  V30 27 C 6.912047 6.378009 -18.942817 0 CFG=2
M  V30 28 C 5.581354 6.814093 -18.301822 0
M  V30 29 S 7.834837 2.922384 -13.937756 0
M  V30 30 O 11.394793 7.786963 -9.764679 0
M  V30 31 C 5.941056 5.072135 -21.091571 0 CFG=1
M  V30 32 C 8.744187 5.682229 -12.236017 0
M  V30 33 H 9.494184 6.231127 -7.780539 0
M  V30 34 H 8.602087 5.676824 -21.912278 0
M  V30 35 H 9.146069 6.429127 -20.429017 0
M  V30 36 H 8.685386 4.730416 -20.436816 0
M  V30 37 H 6.429774 3.933468 -10.427193 0
M  V30 38 H 8.205171 3.261600 -16.343465 0
M  V30 39 H 5.239102 3.911211 -19.370312 0
M  V30 40 H 5.034886 3.103947 -20.910107 0
M  V30 41 H 6.634117 3.202908 -20.201860 0
M  V30 42 H 10.766357 8.605065 -6.958684 0
M  V30 43 H 6.792949 8.321112 -20.621848 0
M  V30 44 H 7.164605 7.532125 -22.162422 0
M  V30 45 H 7.739366 4.888111 -8.555098 0
M  V30 46 H 4.919330 6.508561 -16.282976 0
M  V30 47 H 6.296510 7.627173 -16.405938 0
M  V30 48 H 10.318012 6.868330 -11.411774 0
M  V30 49 H 5.900148 3.818679 -12.727350 0
M  V30 50 H 8.522644 5.324526 -17.903303 0
M  V30 51 H 7.154000 4.284841 -18.268569 0
M  V30 52 H 3.938105 5.769301 -20.546097 0
M  V30 53 H 4.136014 5.477225 -22.282050 0
M  V30 54 H 7.584849 7.220981 -18.774131 0
M  V30 55 H 4.781928 6.121711 -18.559756 0
M  V30 56 H 5.268014 7.817643 -18.591182 0
M  V30 57 H 9.023495 5.897331 -13.256853 0
M  V30 END ATOM
M  V30 BEGIN BOND
M  V30 1 1 4 1
M  V30 2 1 7 3
M  V30 3 1 10 2 CFG=3
M  V30 4 1 12 4
M  V30 5 1 13 12
M  V30 6 1 14 10
M  V30 7 2 15 3
M  V30 8 1 16 1
M  V30 9 1 16 15
M  V30 10 1 17 12
M  V30 11 2 18 5
M  V30 12 2 20 8
M  V30 13 1 20 14
M  V30 14 1 21 19
M  V30 15 2 22 16
M  V30 16 1 23 7
M  V30 17 1 23 18
M  V30 18 1 24 19
M  V30 19 1 25 20
M  V30 20 2 26 6
M  V30 21 1 26 18
M  V30 22 1 26 19
M  V30 23 1 27 10
M  V30 24 1 27 24
M  V30 25 1 28 21
M  V30 26 1 28 27
M  V30 27 1 29 6
M  V30 28 1 29 23
M  V30 29 2 30 4
M  V30 30 1 31 9
M  V30 31 1 31 10
M  V30 32 1 31 11 CFG=3
M  V30 33 1 31 25
M  V30 34 2 32 7
M  V30 35 1 32 22
M  V30 36 1 33 1
M  V30 37 1 34 2
M  V30 38 1 35 2
M  V30 39 1 36 2
M  V30 40 1 37 3
M  V30 41 1 38 6
M  V30 42 1 39 9
M  V30 43 1 40 9
M  V30 44 1 41 9
M  V30 45 1 42 12
M  V30 46 1 43 14
M  V30 47 1 44 14
M  V30 48 1 45 15
M  V30 49 1 46 21
M  V30 50 1 47 21
M  V30 51 1 48 22
M  V30 52 1 23 49 CFG=1
M  V30 53 1 50 24
M  V30 54 1 51 24
M  V30 55 1 52 25
M  V30 56 1 53 25
M  V30 57 1 27 54 CFG=3
M  V30 58 1 55 28
M  V30 59 1 56 28
M  V30 60 1 57 32
M  V30 END BOND
M  V30 END CTAB
M  END
>  <i_epik_Tot_Q>  (1) 
0

>  <i_epik_Tot_abs_Q>  (1) 
0

>  <i_i_glide_confnum>  (1) 
2

>  <i_i_glide_lignum>  (1) 
99

>  <i_i_glide_posenum>  (1) 
280

>  <i_i_glide_rotatable_bonds>  (1) 
6

>  <i_lp_mmshare_version>  (1) 
72125

>  <i_m_source_file_index>  (1) 
54

>  <i_f3d_flags>  (1) 
0

>  <num_sample>  (1) 
100

>  <b_lp_Chiralities_Consistent>  (1) 
1

>  <r_epik_Charging_Adjusted_Penalty>  (1) 
4.1888359508332041e-06

>  <r_epik_Ionization_Penalty>  (1) 
8.7681406238932585e-06

>  <r_epik_Ionization_Penalty_Charging>  (1) 
4.1888359508332041e-06

>  <r_epik_Ionization_Penalty_Neutral>  (1) 
4.5793046730600536e-06

>  <r_epik_State_Penalty>  (1) 
-0

>  <r_glide_ring_energy>  (1) 
0

>  <r_i_docking_score>  (1) 
-5.2148816740551274

>  <r_i_glide_ecoul>  (1) 
-0.29871043957239712

>  <r_i_glide_eff_state_penalty>  (1) 
-0

>  <r_i_glide_einternal>  (1) 
1.9677033933072465

>  <r_i_glide_emodel>  (1) 
-50.854593298195731

>  <r_i_glide_emodel_strain>  (1) 
0.094494594218090811

>  <r_i_glide_energy>  (1) 
-39.515816980601116

>  <r_i_glide_erotb>  (1) 
0.46348911734649417

>  <r_i_glide_esite>  (1) 
-0.067463397336335482

>  <r_i_glide_evdw>  (1) 
-39.21710654102872

>  <r_i_glide_gscore>  (1) 
-5.2148816740551274

>  <r_i_glide_gscore_strain>  (1) 
0

>  <r_i_glide_hbond>  (1) 
0

>  <r_i_glide_ligand_efficiency>  (1) 
-0.16296505231422273

>  <r_i_glide_ligand_efficiency_ln>  (1) 
-1.1677541591265472

>  <r_i_glide_ligand_efficiency_sa>  (1) 
-0.51738179095529968

>  <r_i_glide_lipo>  (1) 
-1.7504640666420788

>  <r_i_glide_metal>  (1) 
-0

>  <r_i_glide_rewards>  (1) 
-1.8547814344359115

>  <r_lp_Energy>  (1) 
16.010603

>  <r_lp_tautomer_probability>  (1) 
1

>  <s_epik_Chemistry_Notes>  (1) 
This compound has an imine and may undergo hydrolysis.

>  <s_epik_cmdline>  (1) 
J2VwaWtfcHl0aG9uJywgJy1waHQnLCAnMS4wJywgJy1waCcsICc3LjQnLCAnLXRuJywgJzgnLCAnLW1hJywgJzUwMCcsICctaW1hZScsICc8aW5maWxlLm1hZT4nLCAnLW9tYWUnLCAnPG91dGZpbGUubWFlPic=

>  <s_epik_input>  (1) 
RltDSF0oRilDKD1PKVtOSF1jKFtjSF1bY0hdMSlbY0hdW2NIXWMxW0NAQEhdKEMyPU8pU1tDSF09QzJOM1tDSDJdW0NIMl1bQ0BASF0oW0NIMl0zKVtDQF00KFtDSDNdKVtDSDJdQyg9TylbQ0gyXVtDQF00KEYpW0NIM10=

>  <s_glide_docking_method>  (1) 
confgen

>  <s_i_glide_gridfile>  (1) 
gpcr_drd2_6luq_protein_autoprepared_prepared

>  <s_lp_Force_Field>  (1) 
S-OPLS

>  <s_lp_Variant>  (1) 
DiffSBDD_53_num_sample_100-1

>  <s_m_source_file>  (1) 
generated__ligand_DiffSBDD_2026-05-06_prepared.sdf

>  <GenAI_Model>  (1) 
DiffSBDD

>  <Protein>  (1) 
generic_title2

$$$$
DiffSBDD_63_num_sample_100
     RDKit          3D

  0  0  0  0  0  0  0  0  0  0999 V3000
M  V30 BEGIN CTAB
M  V30 COUNTS 56 56 0 0 1
M  V30 BEGIN ATOM
M  V30 1 C 11.434649 6.441884 -4.600572 0
M  V30 2 C 7.668469 4.337673 -14.270372 0
M  V30 3 C 6.028107 7.085221 -14.121966 0
M  V30 4 C 9.157280 5.410073 -11.129053 0
M  V30 5 C 12.976179 8.350282 -8.168264 0
M  V30 6 C 7.392813 5.221589 -13.064871 0
M  V30 7 C 7.884984 5.132987 -15.576732 0 CFG=1
M  V30 8 C 11.622457 9.018159 -7.887252 0
M  V30 9 C 10.593003 8.116033 -7.221167 0
M  V30 10 C 12.414097 8.719689 -4.261012 0
M  V30 11 C 5.792911 6.568030 -15.528746 0
M  V30 12 C 9.940621 7.145428 -7.890996 0
M  V30 13 C 11.834332 9.546776 -3.110965 0
M  V30 14 C 13.263245 8.169256 -9.661784 0
M  V30 15 C 6.076647 5.981050 -13.054284 0
M  V30 16 N 9.034826 6.169303 -9.980179 0
M  V30 17 O 8.608196 4.365625 -16.540612 0
M  V30 18 C 10.339966 8.379358 -5.749066 0
M  V30 19 C 11.400295 7.759866 -4.854520 0
M  V30 20 C 6.606433 5.710166 -16.168849 0
M  V30 21 C 10.155499 6.830677 -9.352849 0
M  V30 22 C 8.031606 3.124899 -16.934958 0
M  V30 23 C 8.252135 5.318440 -12.073977 0
M  V30 24 H 10.704764 5.771476 -5.030620 0
M  V30 25 H 12.191993 6.018286 -3.959303 0
M  V30 26 H 8.563370 3.744972 -14.071760 0
M  V30 27 H 6.848726 3.627683 -14.378216 0
M  V30 28 H 5.208449 7.765609 -13.889003 0
M  V30 29 H 6.937733 7.687646 -14.101451 0
M  V30 30 H 10.095494 4.874808 -11.183869 0
M  V30 31 H 13.033972 7.391443 -7.656914 0
M  V30 32 H 13.765642 8.969247 -7.741691 0
M  V30 33 H 8.534799 5.978210 -15.352721 0
M  V30 34 H 11.794202 9.876479 -7.237346 0
M  V30 35 H 11.200215 9.430883 -8.803339 0
M  V30 36 H 12.803680 9.368755 -5.045698 0
M  V30 37 H 13.264633 8.153093 -3.884393 0
M  V30 38 H 4.907450 6.929440 -16.030460 0
M  V30 39 H 9.216091 6.534336 -7.370525 0
M  V30 40 H 12.613206 10.167522 -2.676888 0
M  V30 41 H 11.443698 8.909948 -2.316566 0
M  V30 42 H 11.034461 10.204299 -3.448675 0
M  V30 43 H 14.313454 7.926396 -9.824232 0
M  V30 44 H 13.035150 9.069022 -10.232384 0
M  V30 45 H 12.658027 7.372669 -10.086948 0
M  V30 46 H 5.927832 6.432917 -12.071411 0
M  V30 47 H 5.253845 5.277081 -13.189079 0
M  V30 48 H 8.168012 6.715420 -9.892148 0
M  V30 49 H 10.234941 9.447665 -5.563864 0
M  V30 50 H 9.387347 7.925624 -5.491594 0
M  V30 51 H 6.357997 5.399633 -17.173413 0
M  V30 52 H 11.012495 6.169186 -9.387526 0
M  V30 53 H 10.389643 7.730005 -9.919812 0
M  V30 54 H 8.661709 2.661988 -17.694569 0
M  V30 55 H 7.036854 3.247222 -17.363011 0
M  V30 56 H 7.969005 2.427167 -16.100444 0
M  V30 END ATOM
M  V30 BEGIN BOND
M  V30 1 1 6 2
M  V30 2 1 7 2
M  V30 3 1 8 5
M  V30 4 1 9 8
M  V30 5 1 11 3
M  V30 6 2 12 9
M  V30 7 1 13 10
M  V30 8 1 14 5
M  V30 9 1 15 3
M  V30 10 1 15 6
M  V30 11 1 16 4
M  V30 12 1 17 7
M  V30 13 1 18 9
M  V30 14 2 19 1
M  V30 15 1 19 10
M  V30 16 1 19 18
M  V30 17 1 20 7
M  V30 18 2 20 11
M  V30 19 1 21 12
M  V30 20 1 21 16
M  V30 21 1 22 17
M  V30 22 2 23 4
M  V30 23 2 23 6
M  V30 24 1 24 1
M  V30 25 1 25 1
M  V30 26 1 26 2
M  V30 27 1 27 2
M  V30 28 1 28 3
M  V30 29 1 29 3
M  V30 30 1 30 4
M  V30 31 1 31 5
M  V30 32 1 32 5
M  V30 33 1 7 33 CFG=1
M  V30 34 1 34 8
M  V30 35 1 35 8
M  V30 36 1 36 10
M  V30 37 1 37 10
M  V30 38 1 38 11
M  V30 39 1 39 12
M  V30 40 1 40 13
M  V30 41 1 41 13
M  V30 42 1 42 13
M  V30 43 1 43 14
M  V30 44 1 44 14
M  V30 45 1 45 14
M  V30 46 1 46 15
M  V30 47 1 47 15
M  V30 48 1 48 16
M  V30 49 1 49 18
M  V30 50 1 50 18
M  V30 51 1 51 20
M  V30 52 1 52 21
M  V30 53 1 53 21
M  V30 54 1 54 22
M  V30 55 1 55 22
M  V30 56 1 56 22
M  V30 END BOND
M  V30 END CTAB
M  END
>  <i_epik_Tot_Q>  (1) 
0

>  <i_epik_Tot_abs_Q>  (1) 
0

>  <i_i_glide_confnum>  (1) 
32

>  <i_i_glide_lignum>  (1) 
125

>  <i_i_glide_posenum>  (1) 
226

>  <i_i_glide_rotatable_bonds>  (1) 
9

>  <i_lp_mmshare_version>  (1) 
72125

>  <i_m_source_file_index>  (1) 
64

>  <i_f3d_flags>  (1) 
0

>  <num_sample>  (1) 
100

>  <b_lp_Chiralities_Consistent>  (1) 
1

>  <r_epik_Charging_Adjusted_Penalty>  (1) 
0

>  <r_epik_Ionization_Penalty>  (1) 
2.3151810028890752e-06

>  <r_epik_Ionization_Penalty_Charging>  (1) 
0

>  <r_epik_Ionization_Penalty_Neutral>  (1) 
2.3151810028890752e-06

>  <r_epik_State_Penalty>  (1) 
-0

>  <r_glide_ring_energy>  (1) 
0

>  <r_i_docking_score>  (1) 
-5.2147073016721333

>  <r_i_glide_ecoul>  (1) 
-2.7691235715987883

>  <r_i_glide_eff_state_penalty>  (1) 
-0

>  <r_i_glide_einternal>  (1) 
13.392321088606826

>  <r_i_glide_emodel>  (1) 
-32.558112830460963

>  <r_i_glide_emodel_strain>  (1) 
0.86574446480385348

>  <r_i_glide_energy>  (1) 
-31.035650502592262

>  <r_i_glide_erotb>  (1) 
1.3082352225513891

>  <r_i_glide_esite>  (1) 
-0.090046736961473833

>  <r_i_glide_evdw>  (1) 
-28.266526930993471

>  <r_i_glide_gscore>  (1) 
-5.2147073016721333

>  <r_i_glide_gscore_strain>  (1) 
0

>  <r_i_glide_hbond>  (1) 
-0.16

>  <r_i_glide_ligand_efficiency>  (1) 
-0.22672640442052752

>  <r_i_glide_ligand_efficiency_ln>  (1) 
-1.2609635098958807

>  <r_i_glide_ligand_efficiency_sa>  (1) 
-0.64477973499201024

>  <r_i_glide_lipo>  (1) 
-2.3362685867907387

>  <r_i_glide_metal>  (1) 
-0

>  <r_i_glide_rewards>  (1) 
-2.1079323181818186

>  <r_lp_Energy>  (1) 
-10.607941

>  <r_lp_tautomer_probability>  (1) 
1

>  <s_epik_cmdline>  (1) 
J2VwaWtfcHl0aG9uJywgJy1waHQnLCAnMS4wJywgJy1waCcsICc3LjQnLCAnLXRuJywgJzgnLCAnLW1hJywgJzUwMCcsICctaW1hZScsICc8aW5maWxlLm1hZT4nLCAnLW9tYWUnLCAnPG91dGZpbGUubWFlPic=

>  <s_epik_input>  (1) 
W0NIM11bQ0gyXUMoPVtDSDJdKVtDSDJdQyhcW0NIMl1bQ0gyXVtDSDNdKT1bQ0hdXFtDSDJdW05IXVtDSF09Qz1DMVtDSDJdW0NAQEhdKE9bQ0gzXSlbQ0hdPVtDSF1bQ0gyXVtDSDJdMQ==

>  <s_glide_docking_method>  (1) 
confgen

>  <s_i_glide_gridfile>  (1) 
gpcr_drd2_6luq_protein_autoprepared_prepared

>  <s_lp_Force_Field>  (1) 
S-OPLS

>  <s_lp_Variant>  (1) 
DiffSBDD_63_num_sample_100-1

>  <s_m_source_file>  (1) 
generated__ligand_DiffSBDD_2026-05-06_prepared.sdf

>  <GenAI_Model>  (1) 
DiffSBDD

>  <Protein>  (1) 
generic_title2

$$$$
DiffSBDD_88_num_sample_100
     RDKit          3D

  0  0  0  0  0  0  0  0  0  0999 V3000
M  V30 BEGIN CTAB
M  V30 COUNTS 57 61 0 0 1
M  V30 BEGIN ATOM
M  V30 1 S 9.835219 7.179555 -6.766117 0
M  V30 2 O 8.311199 8.456542 -12.002927 0
M  V30 3 C 10.100593 7.313655 -10.893801 0
M  V30 4 O 11.572716 2.131169 -19.789285 0
M  V30 5 F 13.315157 4.078636 -19.182717 0
M  V30 6 C 10.487944 6.775786 -8.410628 0 CFG=1
M  V30 7 C 8.208288 4.395679 -16.534432 0
M  V30 8 C 8.912691 3.708723 -18.417656 0
M  V30 9 C 10.690288 4.561796 -16.742305 0
M  V30 10 C 10.204706 7.807804 -9.476203 0 CFG=1
M  V30 11 C 8.702047 7.196117 -11.500962 0 CFG=2
M  V30 12 C 10.994924 8.526663 -6.540321 0
M  V30 13 N 7.435011 3.420677 -16.877714 0
M  V30 14 C 7.191654 6.102625 -13.318023 0 CFG=1
M  V30 15 O 11.034850 9.214801 -5.521973 0
M  V30 16 N 8.126620 5.165585 -15.380926 0
M  V30 17 C 12.038812 4.314697 -18.876770 0 CFG=2
M  V30 18 C 11.935317 8.759618 -7.709762 0
M  V30 19 C 8.697950 4.685001 -11.820196 0
M  V30 20 C 9.343133 4.770812 -17.444492 0 CFG=2
M  V30 21 C 11.863743 4.355795 -17.372014 0
M  V30 22 C 9.682489 3.619033 -19.722824 0
M  V30 23 C 7.119730 4.943704 -14.344091 0 CFG=1
M  V30 24 O 11.097270 7.005481 -11.547886 0
M  V30 25 C 5.936866 6.146469 -12.421699 0
M  V30 26 C 11.140193 3.244450 -19.491662 0
M  V30 27 C 8.534924 6.054255 -12.523964 0 CFG=2
M  V30 28 C 7.292429 3.581891 -13.623573 0
M  V30 29 C 11.562446 7.769280 -8.787266 0 CFG=1
M  V30 30 N 7.937195 2.958384 -18.142331 0
M  V30 31 C 8.594515 3.534407 -12.814495 0
M  V30 32 H 7.823659 8.873363 -11.303925 0
M  V30 33 H 10.588478 5.718494 -8.648763 0
M  V30 34 H 10.676650 4.579667 -15.660560 0
M  V30 35 H 9.500673 8.588596 -9.195685 0
M  V30 36 H 8.037900 6.942352 -10.691670 0
M  V30 37 H 7.174771 7.031567 -13.890343 0
M  V30 38 H 8.777823 5.912137 -15.188575 0
M  V30 39 H 11.794323 5.289330 -19.299468 0
M  V30 40 H 11.834801 9.769331 -8.094303 0
M  V30 41 H 12.968527 8.605263 -7.402885 0
M  V30 42 H 9.667192 4.614529 -11.326810 0
M  V30 43 H 7.951893 4.564680 -11.034634 0
M  V30 44 H 9.213633 5.776136 -17.846369 0
M  V30 45 H 12.758989 4.215114 -16.783437 0
M  V30 46 H 9.215466 2.872111 -20.365656 0
M  V30 47 H 9.625549 4.574879 -20.244811 0
M  V30 48 H 6.143523 4.962632 -14.831202 0
M  V30 49 H 5.862871 5.286735 -11.757474 0
M  V30 50 H 5.916486 7.040813 -11.798872 0
M  V30 51 H 5.035091 6.169175 -13.031940 0
M  V30 52 H 9.343449 6.153329 -13.248511 0
M  V30 53 H 7.268375 2.751524 -14.328611 0
M  V30 54 H 6.449324 3.406020 -12.956374 0
M  V30 55 H 12.406444 7.393320 -9.363651 0
M  V30 56 H 9.434722 3.632413 -13.491508 0
M  V30 57 H 8.699382 2.575836 -12.304548 0
M  V30 END ATOM
M  V30 BEGIN BOND
M  V30 1 1 6 1
M  V30 2 1 10 3
M  V30 3 1 10 6
M  V30 4 1 11 2
M  V30 5 1 11 3
M  V30 6 1 12 1
M  V30 7 2 13 7
M  V30 8 2 15 12
M  V30 9 1 16 7
M  V30 10 1 17 5
M  V30 11 1 18 12
M  V30 12 1 20 7
M  V30 13 1 20 8
M  V30 14 1 20 9
M  V30 15 2 21 9
M  V30 16 1 21 17
M  V30 17 1 22 8
M  V30 18 1 23 14
M  V30 19 1 23 16
M  V30 20 2 24 3
M  V30 21 1 25 14
M  V30 22 2 26 4
M  V30 23 1 26 17
M  V30 24 1 26 22
M  V30 25 1 27 11
M  V30 26 1 27 14
M  V30 27 1 27 19
M  V30 28 1 28 23
M  V30 29 1 29 6
M  V30 30 1 29 10
M  V30 31 1 29 18
M  V30 32 2 30 8
M  V30 33 1 30 13
M  V30 34 1 31 19
M  V30 35 1 31 28
M  V30 36 1 32 2
M  V30 37 1 6 33 CFG=3
M  V30 38 1 34 9
M  V30 39 1 10 35 CFG=1
M  V30 40 1 11 36 CFG=1
M  V30 41 1 14 37 CFG=3
M  V30 42 1 38 16
M  V30 43 1 17 39 CFG=3
M  V30 44 1 40 18
M  V30 45 1 41 18
M  V30 46 1 42 19
M  V30 47 1 43 19
M  V30 48 1 20 44 CFG=3
M  V30 49 1 45 21
M  V30 50 1 46 22
M  V30 51 1 47 22
M  V30 52 1 23 48 CFG=3
M  V30 53 1 49 25
M  V30 54 1 50 25
M  V30 55 1 51 25
M  V30 56 1 27 52 CFG=3
M  V30 57 1 53 28
M  V30 58 1 54 28
M  V30 59 1 29 55 CFG=3
M  V30 60 1 56 31
M  V30 61 1 57 31
M  V30 END BOND
M  V30 END CTAB
M  END
>  <i_epik_Tot_Q>  (1) 
0

>  <i_epik_Tot_abs_Q>  (1) 
0

>  <i_i_glide_confnum>  (1) 
1

>  <i_i_glide_lignum>  (1) 
178

>  <i_i_glide_posenum>  (1) 
176

>  <i_i_glide_rotatable_bonds>  (1) 
6

>  <i_lp_mmshare_version>  (1) 
72125

>  <i_m_source_file_index>  (1) 
89

>  <i_f3d_flags>  (1) 
0

>  <num_sample>  (1) 
100

>  <b_lp_Chiralities_Consistent>  (1) 
1

>  <r_epik_Charging_Adjusted_Penalty>  (1) 
0

>  <r_epik_Ionization_Penalty>  (1) 
0.0051441323120346551

>  <r_epik_Ionization_Penalty_Charging>  (1) 
0

>  <r_epik_Ionization_Penalty_Neutral>  (1) 
0.0051441323120346551

>  <r_epik_State_Penalty>  (1) 
-0

>  <r_glide_ring_energy>  (1) 
1.1418401425494451

>  <r_i_docking_score>  (1) 
-5.2035574827156843

>  <r_i_glide_ecoul>  (1) 
-5.1503825754557528

>  <r_i_glide_eff_state_penalty>  (1) 
-0

>  <r_i_glide_einternal>  (1) 
7.8913687721829575

>  <r_i_glide_emodel>  (1) 
-58.076718791939427

>  <r_i_glide_emodel_strain>  (1) 
0.66672738207387994

>  <r_i_glide_energy>  (1) 
-46.262185065491813

>  <r_i_glide_erotb>  (1) 
0.49992101663368649

>  <r_i_glide_esite>  (1) 
-0.051800798653786263

>  <r_i_glide_evdw>  (1) 
-41.111802490036062

>  <r_i_glide_gscore>  (1) 
-5.2035574827156843

>  <r_i_glide_gscore_strain>  (1) 
0

>  <r_i_glide_hbond>  (1) 
-0.032533567800091617

>  <r_i_glide_ligand_efficiency>  (1) 
-0.16785669299082853

>  <r_i_glide_ligand_efficiency_ln>  (1) 
-1.1735616822376231

>  <r_i_glide_ligand_efficiency_sa>  (1) 
-0.52730176773579074

>  <r_i_glide_lipo>  (1) 
-1.2699091578644461

>  <r_i_glide_metal>  (1) 
-0

>  <r_i_glide_rewards>  (1) 
-1.521087464210882

>  <r_lp_Energy>  (1) 
20.470316

>  <r_lp_tautomer_probability>  (1) 
1

>  <s_epik_Chemistry_Notes>  (1) 
This compound has an imine and may undergo hydrolysis.

>  <s_epik_cmdline>  (1) 
J2VwaWtfcHl0aG9uJywgJy1waHQnLCAnMS4wJywgJy1waCcsICc3LjQnLCAnLXRuJywgJzgnLCAnLW1hJywgJzUwMCcsICctaW1hZScsICc8aW5maWxlLm1hZT4nLCAnLW9tYWUnLCAnPG91dGZpbGUubWFlPic=

>  <s_epik_input>  (1) 
UzFDKD1PKVtDSDJdW0NAQEhdKFtDQEBIXTEyKVtDQEhdMkMoPU8pW0NAQEhdKFtPSF0pW0NASF0zW0NIMl1bQ0gyXVtDSDJdW0NAQEhdKFtDQEhdM1tDSDNdKVtOSF1DKD1OTjQpW0NASF0oQz00NSlbQ0hdPVtDSF1bQ0BASF0oRilDKD1PKVtDSDJdNQ==

>  <s_glide_docking_method>  (1) 
confgen

>  <s_i_glide_gridfile>  (1) 
gpcr_drd2_6luq_protein_autoprepared_prepared

>  <s_lp_Force_Field>  (1) 
S-OPLS

>  <s_lp_Variant>  (1) 
DiffSBDD_88_num_sample_100-1

>  <s_m_source_file>  (1) 
generated__ligand_DiffSBDD_2026-05-06_prepared.sdf

>  <GenAI_Model>  (1) 
DiffSBDD

>  <Protein>  (1) 
generic_title2

$$$$
DiffSBDD_76_num_sample_100
     RDKit          3D

  0  0  0  0  0  0  0  0  0  0999 V3000
M  V30 BEGIN CTAB
M  V30 COUNTS 77 80 0 0 1
M  V30 BEGIN ATOM
M  V30 1 C 8.712252 6.749255 -11.611329 0
M  V30 2 C 11.397573 8.251114 -7.595442 0
M  V30 3 C 6.614476 4.593652 -12.165172 0
M  V30 4 N 8.536195 5.549177 -10.748070 0 CFG=2 CHG=1
M  V30 5 C 11.826892 8.569304 -6.274257 0
M  V30 6 C 10.410913 1.704660 -19.745512 0
M  V30 7 C 10.639198 3.024296 -19.792822 0
M  V30 8 C 7.592587 4.160351 -17.638024 0 CFG=1
M  V30 9 C 10.558759 7.582887 -10.160387 0
M  V30 10 N 7.487481 3.421836 -15.202743 0
M  V30 11 C 6.873244 2.104277 -15.493077 0
M  V30 12 C 10.054745 6.836167 -9.091323 0
M  V30 13 C 9.643992 4.065506 -19.299055 0
M  V30 14 C 10.084874 6.381320 -6.679385 0
M  V30 15 C 11.457239 8.620288 -9.891313 0
M  V30 16 C 9.236862 5.124592 -15.865347 0
M  V30 17 C 10.144770 7.270716 -11.575789 0
M  V30 18 C 8.146441 3.348096 -13.884203 0
M  V30 19 N 11.834853 8.969344 -8.655286 0
M  V30 20 O 7.894356 1.139806 -15.669725 0
M  V30 21 O 12.578934 9.016252 -3.425928 0
M  V30 22 C 8.242824 3.500406 -18.889653 0 CFG=1
M  V30 23 C 11.434792 7.745817 -5.169478 0
M  V30 24 C 7.236056 3.279213 -12.657655 0
M  V30 25 N 6.293508 6.164139 -16.868712 0 CHG=1
M  V30 26 C 8.381643 3.899040 -16.298330 0 CFG=2
M  V30 27 O 12.649963 9.652632 -6.079182 0 CHG=-1
M  V30 28 C 7.135985 5.025653 -10.769297 0
M  V30 29 C 10.503605 7.149119 -7.777761 0
M  V30 30 C 9.046202 5.702810 -9.342964 0
M  V30 31 C 7.193796 5.632195 -17.910721 0
M  V30 32 C 9.176911 1.172207 -19.229978 0
M  V30 33 C 8.178331 1.973002 -18.830727 0
M  V30 34 C 11.957576 8.009029 -3.761470 0
M  V30 35 C 10.565470 6.657899 -5.393276 0
M  V30 36 C 11.691465 6.905930 -2.724462 0
M  V30 37 H 8.482464 6.514289 -12.648545 0
M  V30 38 H 8.027673 7.540972 -11.313607 0
M  V30 39 H 6.694725 5.379651 -12.913802 0
M  V30 40 H 5.540799 4.424555 -12.071478 0
M  V30 41 H 11.170483 1.023981 -20.101819 0
M  V30 42 H 11.576227 3.393273 -20.184059 0
M  V30 43 H 6.634896 3.662228 -17.580130 0
M  V30 44 H 6.235494 2.096398 -16.372315 0
M  V30 45 H 6.234864 1.783503 -14.673680 0
M  V30 46 H 9.526627 4.834505 -20.063906 0
M  V30 47 H 10.136261 4.544405 -18.459646 0
M  V30 48 H 9.413043 5.551768 -6.822888 0
M  V30 49 H 11.873986 9.203843 -10.691522 0
M  V30 50 H 9.718455 5.634414 -16.695121 0
M  V30 51 H 8.639812 5.866367 -15.336842 0
M  V30 52 H 10.061438 4.830199 -15.215991 0
M  V30 53 H 10.212324 8.169351 -12.187731 0
M  V30 54 H 10.834483 6.539890 -12.000909 0
M  V30 55 H 8.725474 2.432763 -13.835231 0
M  V30 56 H 8.833044 4.166256 -13.689422 0
M  V30 57 H 7.597787 0.314808 -15.312486 0
M  V30 58 H 7.584186 3.720448 -19.731645 0
M  V30 59 H 6.488780 2.488717 -12.716830 0
M  V30 60 H 7.937059 2.969300 -11.891670 0
M  V30 61 H 6.096050 7.138771 -17.047633 0
M  V30 62 H 5.430338 5.639931 -16.869034 0
M  V30 63 H 9.100961 3.104831 -16.496439 0
M  V30 64 H 6.459170 5.770128 -10.356164 0
M  V30 65 H 7.062156 4.176810 -10.087068 0
M  V30 66 H 8.197855 5.894628 -8.685671 0
M  V30 67 H 9.477896 4.751762 -9.027317 0
M  V30 68 H 8.065773 6.275337 -18.016574 0
M  V30 69 H 6.659647 5.702958 -18.859167 0
M  V30 70 H 9.050916 0.101085 -19.166301 0
M  V30 71 H 7.264464 1.538185 -18.453731 0
M  V30 72 H 10.253408 6.032969 -4.573731 0
M  V30 73 H 12.308074 6.037470 -2.955364 0
M  V30 74 H 11.981020 7.262529 -1.736651 0
M  V30 75 H 10.657022 6.569297 -2.661299 0
M  V30 76 H 6.736090 6.064402 -15.966210 0
M  V30 77 H 9.121873 4.837161 -11.158175 0
M  V30 END ATOM
M  V30 BEGIN BOND
M  V30 1 1 4 1
M  V30 2 2 5 2
M  V30 3 2 7 6
M  V30 4 1 11 10
M  V30 5 2 12 9
M  V30 6 1 13 7
M  V30 7 1 15 9
M  V30 8 1 17 1
M  V30 9 1 17 9
M  V30 10 1 18 10
M  V30 11 1 19 2
M  V30 12 2 19 15
M  V30 13 1 20 11
M  V30 14 1 22 8
M  V30 15 1 22 13
M  V30 16 1 23 5
M  V30 17 1 24 3
M  V30 18 1 24 18
M  V30 19 1 26 8
M  V30 20 1 26 10
M  V30 21 1 26 16
M  V30 22 1 27 5
M  V30 23 1 28 3
M  V30 24 1 28 4
M  V30 25 1 29 2
M  V30 26 1 29 12
M  V30 27 2 29 14
M  V30 28 1 30 4
M  V30 29 1 30 12
M  V30 30 1 31 8
M  V30 31 1 31 25
M  V30 32 1 32 6
M  V30 33 1 33 22
M  V30 34 2 33 32
M  V30 35 2 34 21
M  V30 36 1 34 23
M  V30 37 1 35 14
M  V30 38 2 35 23
M  V30 39 1 36 34
M  V30 40 1 37 1
M  V30 41 1 38 1
M  V30 42 1 39 3
M  V30 43 1 40 3
M  V30 44 1 41 6
M  V30 45 1 42 7
M  V30 46 1 8 43 CFG=1
M  V30 47 1 44 11
M  V30 48 1 45 11
M  V30 49 1 46 13
M  V30 50 1 47 13
M  V30 51 1 48 14
M  V30 52 1 49 15
M  V30 53 1 50 16
M  V30 54 1 51 16
M  V30 55 1 52 16
M  V30 56 1 53 17
M  V30 57 1 54 17
M  V30 58 1 55 18
M  V30 59 1 56 18
M  V30 60 1 57 20
M  V30 61 1 22 58 CFG=3
M  V30 62 1 59 24
M  V30 63 1 60 24
M  V30 64 1 61 25
M  V30 65 1 62 25
M  V30 66 1 26 63 CFG=3
M  V30 67 1 64 28
M  V30 68 1 65 28
M  V30 69 1 66 30
M  V30 70 1 67 30
M  V30 71 1 68 31
M  V30 72 1 69 31
M  V30 73 1 70 32
M  V30 74 1 71 33
M  V30 75 1 72 35
M  V30 76 1 73 36
M  V30 77 1 74 36
M  V30 78 1 75 36
M  V30 79 1 76 25
M  V30 80 1 4 77 CFG=3
M  V30 END BOND
M  V30 END CTAB
M  END
>  <i_epik_Tot_Q>  (1) 
1

>  <i_epik_Tot_abs_Q>  (1) 
3

>  <i_i_glide_confnum>  (1) 
1358

>  <i_i_glide_lignum>  (1) 
153

>  <i_i_glide_posenum>  (1) 
168

>  <i_i_glide_rotatable_bonds>  (1) 
12

>  <i_lp_mmshare_version>  (1) 
72125

>  <i_m_source_file_index>  (1) 
77

>  <i_f3d_flags>  (1) 
0

>  <num_sample>  (1) 
100

>  <b_lp_Chiralities_Consistent>  (1) 
1

>  <r_epik_Charging_Adjusted_Penalty>  (1) 
0.19513752508682314

>  <r_epik_Ionization_Penalty>  (1) 
0.12765993639139714

>  <r_epik_Ionization_Penalty_Charging>  (1) 
0.058121654325050918

>  <r_epik_Ionization_Penalty_Neutral>  (1) 
0.069538282066346213

>  <r_epik_State_Penalty>  (1) 
0.13701587076177221

>  <r_glide_ring_energy>  (1) 
0.68305203791256774

>  <r_i_docking_score>  (1) 
-5.2014646267038067

>  <r_i_glide_ecoul>  (1) 
-6.1391999999947497

>  <r_i_glide_eff_state_penalty>  (1) 
0.13701587076177221

>  <r_i_glide_einternal>  (1) 
22.278800350125636

>  <r_i_glide_emodel>  (1) 
-39.823612718114873

>  <r_i_glide_emodel_strain>  (1) 
1.2326559101387602

>  <r_i_glide_energy>  (1) 
-38.12321331668636

>  <r_i_glide_erotb>  (1) 
0.66875336800380736

>  <r_i_glide_esite>  (1) 
-0.057738162626917416

>  <r_i_glide_evdw>  (1) 
-31.984013316691609

>  <r_i_glide_gscore>  (1) 
-5.3384804974655786

>  <r_i_glide_gscore_strain>  (1) 
0

>  <r_i_glide_hbond>  (1) 
0

>  <r_i_glide_ligand_efficiency>  (1) 
-0.1444851285195502

>  <r_i_glide_ligand_efficiency_ln>  (1) 
-1.1348190542124916

>  <r_i_glide_ligand_efficiency_sa>  (1) 
-0.47707938291874502

>  <r_i_glide_lipo>  (1) 
-2.0431253921227079

>  <r_i_glide_metal>  (1) 
-0

>  <r_i_glide_rewards>  (1) 
-1.3862896448859683

>  <r_lp_Energy>  (1) 
66.867964000000001

>  <r_lp_tautomer_probability>  (1) 
0.99995000000000001

>  <s_epik_Chemistry_Notes>  (1) 
This compound contains an acetal/aminal-like group ( X-CH(R)-Y where X, Y are N, S, or O) that may be acid/base labile, releasing an aldehyde.

>  <s_epik_cmdline>  (1) 
J2VwaWtfcHl0aG9uJywgJy1waHQnLCAnMS4wJywgJy1waCcsICc3LjQnLCAnLXRuJywgJzgnLCAnLW1hJywgJzUwMCcsICctaW1hZScsICc8aW5maWxlLm1hZT4nLCAnLW9tYWUnLCAnPG91dGZpbGUubWFlPic=

>  <s_epik_input>  (1) 
Tz1DKFtDSDNdKWMoYzFbT0hdKVtjSF1bY0hdYyhjMTIpYzNjKFtjSF1uMilbQ0gyXVtDSDJdTihbQ0gyXTMpW0NIMl1bQ0gyXVtDSDJdW0NIMl1OKFtDSDJdW09IXSlbQ0BIXShbQ0gzXSlbQ0BASF0oW0NIMl1bTkgyXSlbQ0BIXTRbQ0gyXVtDSF09W0NIXVtDSF09W0NIXTQ=

>  <s_glide_docking_method>  (1) 
confgen

>  <s_i_glide_gridfile>  (1) 
gpcr_drd2_6luq_protein_autoprepared_prepared

>  <s_lp_Force_Field>  (1) 
S-OPLS

>  <s_lp_Variant>  (1) 
DiffSBDD_76_num_sample_100-2

>  <s_m_source_file>  (1) 
generated__ligand_DiffSBDD_2026-05-06_prepared.sdf

>  <GenAI_Model>  (1) 
DiffSBDD

>  <Protein>  (1) 
generic_title2

$$$$
DiffSBDD_2_num_sample_100
     RDKit          3D

  0  0  0  0  0  0  0  0  0  0999 V3000
M  V30 BEGIN CTAB
M  V30 COUNTS 31 32 0 0 1
M  V30 BEGIN ATOM
M  V30 1 C 11.434626 7.220514 -4.668476 0
M  V30 2 C 9.404719 5.841053 -12.446858 0 CFG=2
M  V30 3 O 10.973993 8.696391 -6.979468 0
M  V30 4 C 8.470219 6.047287 -11.240032 0
M  V30 5 C 10.823239 6.648960 -5.829331 0
M  V30 6 O 11.834839 10.595297 -5.993868 0
M  V30 7 N 9.034393 5.458040 -10.036198 0
M  V30 8 C 12.634633 8.373762 -2.400210 0
M  V30 9 C 11.559222 9.406409 -5.921304 0
M  V30 10 C 10.006555 6.822974 -8.094669 0
M  V30 11 C 11.809927 8.569399 -4.690565 0
M  V30 12 C 10.611233 7.370099 -6.925892 0
M  V30 13 C 9.516971 6.224761 -9.040011 0
M  V30 14 O 9.773218 4.477055 -12.497162 0
M  V30 15 C 10.662252 6.718394 -12.400636 0
M  V30 16 C 12.418856 9.144772 -3.556344 0
M  V30 17 C 12.247289 7.024604 -2.377544 0
M  V30 18 C 11.651702 6.449263 -3.512024 0
M  V30 19 H 8.859126 6.075152 -13.362679 0
M  V30 20 H 8.246903 7.107032 -11.098391 0
M  V30 21 H 7.513845 5.560084 -11.430404 0
M  V30 22 H 10.538492 5.618944 -5.789694 0
M  V30 23 H 9.564214 4.634763 -10.290992 0
M  V30 24 H 13.099561 8.819961 -1.531978 0
M  V30 25 H 10.509383 4.371326 -13.091396 0
M  V30 26 H 10.382086 7.768785 -12.434951 0
M  V30 27 H 11.239449 6.569355 -11.491793 0
M  V30 28 H 11.317989 6.523440 -13.250162 0
M  V30 29 H 12.719420 10.169263 -3.572861 0
M  V30 30 H 12.411088 6.427665 -1.492418 0
M  V30 31 H 11.358593 5.414689 -3.496421 0
M  V30 END ATOM
M  V30 BEGIN BOND
M  V30 1 1 4 2
M  V30 2 1 5 1
M  V30 3 1 7 4
M  V30 4 1 9 3
M  V30 5 2 9 6
M  V30 6 1 11 1
M  V30 7 1 11 9
M  V30 8 1 12 3
M  V30 9 2 12 5
M  V30 10 1 12 10
M  V30 11 1 13 7
M  V30 12 3 13 10
M  V30 13 1 14 2
M  V30 14 1 15 2
M  V30 15 1 16 8
M  V30 16 2 16 11
M  V30 17 2 17 8
M  V30 18 2 18 1
M  V30 19 1 18 17
M  V30 20 1 2 19 CFG=3
M  V30 21 1 20 4
M  V30 22 1 21 4
M  V30 23 1 22 5
M  V30 24 1 23 7
M  V30 25 1 24 8
M  V30 26 1 25 14
M  V30 27 1 26 15
M  V30 28 1 27 15
M  V30 29 1 28 15
M  V30 30 1 29 16
M  V30 31 1 30 17
M  V30 32 1 31 18
M  V30 END BOND
M  V30 END CTAB
M  END
>  <i_epik_Tot_Q>  (1) 
0

>  <i_epik_Tot_abs_Q>  (1) 
0

>  <i_i_glide_confnum>  (1) 
5

>  <i_i_glide_lignum>  (1) 
4

>  <i_i_glide_posenum>  (1) 
278

>  <i_i_glide_rotatable_bonds>  (1) 
5

>  <i_lp_mmshare_version>  (1) 
72125

>  <i_m_source_file_index>  (1) 
3

>  <i_f3d_flags>  (1) 
0

>  <num_sample>  (1) 
100

>  <b_lp_Chiralities_Consistent>  (1) 
1

>  <r_epik_Charging_Adjusted_Penalty>  (1) 
0.030576885115692693

>  <r_epik_Ionization_Penalty>  (1) 
0.030576926290342817

>  <r_epik_Ionization_Penalty_Charging>  (1) 
0

>  <r_epik_Ionization_Penalty_Neutral>  (1) 
0.030576926290342817

>  <r_epik_State_Penalty>  (1) 
0.030576885115692693

>  <r_glide_ring_energy>  (1) 
0

>  <r_i_docking_score>  (1) 
-5.1970392197236421

>  <r_i_glide_ecoul>  (1) 
-4.5113791915802706

>  <r_i_glide_eff_state_penalty>  (1) 
0.030576885115692693

>  <r_i_glide_einternal>  (1) 
0.57511155885506771

>  <r_i_glide_emodel>  (1) 
-41.776699552166747

>  <r_i_glide_emodel_strain>  (1) 
0.41308656205452721

>  <r_i_glide_energy>  (1) 
-31.891345156732484

>  <r_i_glide_erotb>  (1) 
0.8801959699319355

>  <r_i_glide_esite>  (1) 
0

>  <r_i_glide_evdw>  (1) 
-27.379965965152213

>  <r_i_glide_gscore>  (1) 
-5.2276161048393348

>  <r_i_glide_gscore_strain>  (1) 
0

>  <r_i_glide_hbond>  (1) 
-0.32000000000000001

>  <r_i_glide_ligand_efficiency>  (1) 
-0.28872440109575792

>  <r_i_glide_ligand_efficiency_ln>  (1) 
-1.335872133344423

>  <r_i_glide_ligand_efficiency_sa>  (1) 
-0.75667198946982528

>  <r_i_glide_lipo>  (1) 
-2.5916383295947996

>  <r_i_glide_metal>  (1) 
-0

>  <r_i_glide_rewards>  (1) 
-1.1504685681818185

>  <r_lp_Energy>  (1) 
10.004031999999999

>  <s_epik_cmdline>  (1) 
J2VwaWtfcHl0aG9uJywgJy1waHQnLCAnMS4wJywgJy1waCcsICc3LjQnLCAnLXRuJywgJzgnLCAnLW1hJywgJzUwMCcsICctaW1hZScsICc8aW5maWxlLm1hZT4nLCAnLW9tYWUnLCAnPG91dGZpbGUubWFlPic=

>  <s_epik_input>  (1) 
W2NIXTFbY0hdW2NIXVtjSF1jKGMxMiljKD1PKW9jKFtjSF0yKUMjQ1tOSF1bQ0gyXVtDQEhdKFtPSF0pW0NIM10=

>  <s_glide_docking_method>  (1) 
confgen

>  <s_i_glide_gridfile>  (1) 
gpcr_drd2_6luq_protein_autoprepared_prepared

>  <s_lp_Force_Field>  (1) 
S-OPLS

>  <s_lp_Variant>  (1) 
DiffSBDD_2_num_sample_100-1

>  <s_m_source_file>  (1) 
generated__ligand_DiffSBDD_2026-05-06_prepared.sdf

>  <GenAI_Model>  (1) 
DiffSBDD

>  <Protein>  (1) 
generic_title2

$$$$
DiffSBDD_83_num_sample_100
     RDKit          3D

  0  0  0  0  0  0  0  0  0  0999 V3000
M  V30 BEGIN CTAB
M  V30 COUNTS 48 52 0 0 1
M  V30 BEGIN ATOM
M  V30 1 C 9.914955 7.388984 -10.009767 0
M  V30 2 C 3.788108 7.114934 -17.108091 0
M  V30 3 C 6.221975 6.970046 -16.966071 0 CFG=1
M  V30 4 C 6.256958 6.818293 -13.332644 0
M  V30 5 C 5.846606 6.211634 -15.725238 0 CFG=2
M  V30 6 N 7.293472 5.769299 -11.091672 0
M  V30 7 C 5.835179 6.512193 -18.345091 0
M  V30 8 C 10.524259 7.511250 -7.645083 0
M  V30 9 C 4.975440 7.346315 -16.205051 0 CFG=2
M  V30 10 C 6.642403 6.278199 -14.479118 0
M  V30 11 C 11.113824 8.274221 -6.464585 0
M  V30 12 C 8.722684 5.338269 -10.956229 0 CFG=1
M  V30 13 C 9.434489 5.512074 -8.524593 0
M  V30 14 C 7.885847 5.739133 -14.284809 0
M  V30 15 C 10.483429 8.096002 -8.931918 0
M  V30 16 C 4.369105 6.919713 -18.518326 0
M  V30 17 C 9.448375 5.425938 -12.353784 0
M  V30 18 C 10.002463 6.217628 -7.448413 0
M  V30 19 C 8.266288 5.964277 -13.038204 0
M  V30 20 C 12.233090 9.265718 -6.810049 0
M  V30 21 O 12.810712 9.769300 -5.625416 0
M  V30 22 C 7.306596 6.752057 -12.161321 0 CFG=1
M  V30 23 C 9.384649 6.094879 -9.806377 0
M  V30 24 H 9.872397 7.844678 -10.986787 0
M  V30 25 H 3.257622 6.221849 -16.775369 0
M  V30 26 H 3.093717 7.954964 -17.063516 0
M  V30 27 H 7.034813 7.673877 -16.922874 0
M  V30 28 H 5.301368 7.300023 -13.187878 0
M  V30 29 H 5.437795 5.223742 -15.855516 0
M  V30 30 H 7.037231 6.321217 -10.264222 0
M  V30 31 H 5.953783 5.429851 -18.407384 0
M  V30 32 H 6.476700 6.969011 -19.099627 0
M  V30 33 H 4.994259 8.287389 -15.657773 0
M  V30 34 H 11.489690 7.544685 -5.746048 0
M  V30 35 H 10.300530 8.800164 -5.962634 0
M  V30 36 H 8.695455 4.288107 -10.662872 0
M  V30 37 H 9.024022 4.526982 -8.363903 0
M  V30 38 H 8.434998 5.157967 -15.010966 0
M  V30 39 H 10.876131 9.087489 -9.092045 0
M  V30 40 H 3.834838 6.169301 -19.091661 0
M  V30 41 H 4.313204 7.861037 -19.066596 0
M  V30 42 H 10.284440 6.123206 -12.387983 0
M  V30 43 H 9.748725 4.454467 -12.748050 0
M  V30 44 H 10.028549 5.769306 -6.466603 0
M  V30 45 H 11.834830 10.102676 -7.379547 0
M  V30 46 H 13.007945 8.784662 -7.408571 0
M  V30 47 H 13.574475 10.279797 -5.853259 0
M  V30 48 H 7.716577 7.721386 -11.876209 0
M  V30 END ATOM
M  V30 BEGIN BOND
M  V30 1 1 5 3
M  V30 2 1 7 3
M  V30 3 1 9 2
M  V30 4 1 9 3
M  V30 5 1 9 5
M  V30 6 2 10 4
M  V30 7 1 10 5
M  V30 8 1 11 8
M  V30 9 1 12 6
M  V30 10 1 14 10
M  V30 11 2 15 1
M  V30 12 1 15 8
M  V30 13 1 16 2
M  V30 14 1 16 7
M  V30 15 1 17 12
M  V30 16 2 18 8
M  V30 17 1 18 13
M  V30 18 2 19 14
M  V30 19 1 19 17
M  V30 20 1 20 11
M  V30 21 1 21 20
M  V30 22 1 22 4
M  V30 23 1 22 6
M  V30 24 1 22 19
M  V30 25 1 23 1
M  V30 26 1 23 12
M  V30 27 2 23 13
M  V30 28 1 24 1
M  V30 29 1 25 2
M  V30 30 1 26 2
M  V30 31 1 3 27 CFG=3
M  V30 32 1 28 4
M  V30 33 1 5 29 CFG=3
M  V30 34 1 30 6
M  V30 35 1 31 7
M  V30 36 1 32 7
M  V30 37 1 9 33 CFG=1
M  V30 38 1 34 11
M  V30 39 1 35 11
M  V30 40 1 12 36 CFG=1
M  V30 41 1 37 13
M  V30 42 1 38 14
M  V30 43 1 39 15
M  V30 44 1 40 16
M  V30 45 1 41 16
M  V30 46 1 42 17
M  V30 47 1 43 17
M  V30 48 1 44 18
M  V30 49 1 45 20
M  V30 50 1 46 20
M  V30 51 1 47 21
M  V30 52 1 22 48 CFG=1
M  V30 END BOND
M  V30 END CTAB
M  END
>  <i_epik_Tot_Q>  (1) 
0

>  <i_epik_Tot_abs_Q>  (1) 
0

>  <i_i_glide_confnum>  (1) 
26

>  <i_i_glide_lignum>  (1) 
172

>  <i_i_glide_posenum>  (1) 
10

>  <i_i_glide_rotatable_bonds>  (1) 
5

>  <i_lp_mmshare_version>  (1) 
72125

>  <i_m_source_file_index>  (1) 
84

>  <i_f3d_flags>  (1) 
0

>  <num_sample>  (1) 
100

>  <b_lp_Chiralities_Consistent>  (1) 
1

>  <r_epik_Charging_Adjusted_Penalty>  (1) 
0.79484472859609101

>  <r_epik_Ionization_Penalty>  (1) 
0.79484480768617471

>  <r_epik_Ionization_Penalty_Charging>  (1) 
0

>  <r_epik_Ionization_Penalty_Neutral>  (1) 
0.79484480768617471

>  <r_epik_State_Penalty>  (1) 
0.79484472859609101

>  <r_glide_ring_energy>  (1) 
1.4396960314071907

>  <r_i_docking_score>  (1) 
-5.1955689079361136

>  <r_i_glide_ecoul>  (1) 
-3.0267152083612059

>  <r_i_glide_eff_state_penalty>  (1) 
0.79484472859609101

>  <r_i_glide_einternal>  (1) 
4.0551535881715504

>  <r_i_glide_emodel>  (1) 
-41.229150246349803

>  <r_i_glide_emodel_strain>  (1) 
0.86879022406347417

>  <r_i_glide_energy>  (1) 
-32.491489190577319

>  <r_i_glide_erotb>  (1) 
0.7823539513187745

>  <r_i_glide_esite>  (1) 
0

>  <r_i_glide_evdw>  (1) 
-29.464773982216112

>  <r_i_glide_gscore>  (1) 
-5.9904136365322049

>  <r_i_glide_gscore_strain>  (1) 
0

>  <r_i_glide_hbond>  (1) 
-0.16

>  <r_i_glide_ligand_efficiency>  (1) 
-0.22589430034504843

>  <r_i_glide_ligand_efficiency_ln>  (1) 
-1.2563356727531512

>  <r_i_glide_ligand_efficiency_sa>  (1) 
-0.64241334168795527

>  <r_i_glide_lipo>  (1) 
-2.4726091074859911

>  <r_i_glide_metal>  (1) 
-0

>  <r_i_glide_rewards>  (1) 
-2.2129125000000012

>  <r_lp_Energy>  (1) 
34.739830999999995

>  <s_epik_cmdline>  (1) 
J2VwaWtfcHl0aG9uJywgJy1waHQnLCAnMS4wJywgJy1waCcsICc3LjQnLCAnLXRuJywgJzgnLCAnLW1hJywgJzUwMCcsICctaW1hZScsICc8aW5maWxlLm1hZT4nLCAnLW9tYWUnLCAnPG91dGZpbGUubWFlPic=

>  <s_epik_input>  (1) 
W09IXVtDSDJdW0NIMl1jMVtjSF1bY0hdYyhbY0hdW2NIXTEpW0NASF0oW0NIMl0yKVtOSF1bQ0BIXShDMjMpW0NIXT1DKFtDSF09MylbQ0BIXTRbQ0BASF0oW0NAQEhdNDUpW0NIMl1bQ0gyXVtDSDJdNQ==

>  <s_glide_docking_method>  (1) 
confgen

>  <s_i_glide_gridfile>  (1) 
gpcr_drd2_6luq_protein_autoprepared_prepared

>  <s_lp_Force_Field>  (1) 
S-OPLS

>  <s_lp_Variant>  (1) 
DiffSBDD_83_num_sample_100-4

>  <s_m_source_file>  (1) 
generated__ligand_DiffSBDD_2026-05-06_prepared.sdf

>  <GenAI_Model>  (1) 
DiffSBDD

>  <Protein>  (1) 
generic_title2

$$$$
DiffSBDD_44_num_sample_100
     RDKit          3D

  0  0  0  0  0  0  0  0  0  0999 V3000
M  V30 BEGIN CTAB
M  V30 COUNTS 56 58 0 0 1
M  V30 BEGIN ATOM
M  V30 1 C 7.747650 4.270437 -15.951779 0
M  V30 2 C 7.426994 4.088548 -14.448882 0 CFG=1
M  V30 3 C 12.281221 9.230392 -4.774965 0
M  V30 4 C 11.949190 7.158486 -2.915080 0
M  V30 5 C 11.422146 7.012982 -4.214809 0
M  V30 6 C 9.129874 5.850484 -10.436842 0
M  V30 7 C 6.153754 4.799907 -14.017836 0
M  V30 8 N 7.007175 2.679796 -14.167344 0 CFG=2 CHG=1
M  V30 9 C 10.159347 6.199471 -9.344399 0
M  V30 10 C 10.141000 7.085817 -6.943447 0
M  V30 11 O 9.690137 6.169339 -6.282662 0
M  V30 12 C 12.645210 8.307856 -2.563894 0
M  V30 13 N 11.772790 6.169301 -1.977111 0
M  V30 14 C 5.256760 4.014623 -13.092333 0
M  V30 15 N 11.011828 7.999281 -6.510749 0
M  V30 16 C 9.603428 4.688436 -11.332271 0
M  V30 17 O 9.434946 5.364190 -14.039692 0
M  V30 18 C 10.357555 8.671563 -8.652634 0
M  V30 19 C 5.958477 2.645471 -13.112574 0
M  V30 20 N 8.573696 4.261431 -12.264610 0
M  V30 21 C 8.042908 1.626102 -14.050147 0
M  V30 22 C 9.712389 7.293167 -8.371007 0 CFG=1
M  V30 23 C 11.357630 8.991237 -7.496327 0
M  V30 24 C 11.559975 8.075837 -5.156168 0
M  V30 25 C 8.574054 4.629803 -13.558118 0
M  V30 26 C 12.824217 9.325473 -3.491724 0
M  V30 27 O 5.866927 5.931772 -14.402286 0
M  V30 28 H 7.781925 5.324732 -16.234045 0
M  V30 29 H 8.719288 3.839179 -16.199230 0
M  V30 30 H 7.015801 3.780057 -16.591356 0
M  V30 31 H 12.432648 10.039603 -5.466427 0
M  V30 32 H 10.901385 6.109965 -4.463138 0
M  V30 33 H 8.184453 5.581641 -9.962295 0
M  V30 34 H 8.921425 6.728840 -11.048998 0
M  V30 35 H 11.063956 6.569755 -9.823507 0
M  V30 36 H 10.406000 5.294241 -8.788081 0
M  V30 37 H 13.058363 8.408712 -1.570487 0
M  V30 38 H 12.264362 6.199074 -1.097090 0
M  V30 39 H 11.379318 5.270421 -2.238000 0
M  V30 40 H 5.231798 4.454415 -12.095062 0
M  V30 41 H 4.244593 3.966082 -13.491656 0
M  V30 42 H 10.513298 4.941241 -11.890606 0
M  V30 43 H 9.834854 3.827915 -10.705229 0
M  V30 44 H 10.840012 8.745919 -9.627763 0
M  V30 45 H 9.527453 9.369253 -8.678911 0
M  V30 46 H 6.395728 2.440867 -12.138872 0
M  V30 47 H 5.278258 1.825596 -13.333998 0
M  V30 48 H 7.844206 3.659064 -11.917701 0
M  V30 49 H 8.705644 1.767472 -13.196227 0
M  V30 50 H 7.568244 0.650087 -13.937065 0
M  V30 51 H 8.635269 1.590784 -14.962278 0
M  V30 52 H 8.634804 7.352122 -8.308108 0
M  V30 53 H 11.261282 9.990842 -7.091287 0
M  V30 54 H 12.389765 8.839924 -7.816278 0
M  V30 55 H 13.383536 10.174825 -3.218095 0
M  V30 56 H 6.498994 2.431100 -15.005235 0
M  V30 END ATOM
M  V30 BEGIN BOND
M  V30 1 1 2 1 CFG=3
M  V30 2 2 5 4
M  V30 3 1 7 2
M  V30 4 1 8 2
M  V30 5 1 9 6
M  V30 6 2 11 10
M  V30 7 1 12 4
M  V30 8 1 13 4
M  V30 9 1 14 7
M  V30 10 1 15 10
M  V30 11 1 16 6
M  V30 12 1 19 8
M  V30 13 1 19 14
M  V30 14 1 20 16
M  V30 15 1 21 8
M  V30 16 1 22 9
M  V30 17 1 22 10
M  V30 18 1 22 18
M  V30 19 1 23 15
M  V30 20 1 23 18
M  V30 21 2 24 3
M  V30 22 1 24 5
M  V30 23 1 24 15
M  V30 24 1 25 2
M  V30 25 2 25 17
M  V30 26 1 25 20
M  V30 27 1 26 3
M  V30 28 2 26 12
M  V30 29 2 27 7
M  V30 30 1 28 1
M  V30 31 1 29 1
M  V30 32 1 30 1
M  V30 33 1 31 3
M  V30 34 1 32 5
M  V30 35 1 33 6
M  V30 36 1 34 6
M  V30 37 1 35 9
M  V30 38 1 36 9
M  V30 39 1 37 12
M  V30 40 1 38 13
M  V30 41 1 39 13
M  V30 42 1 40 14
M  V30 43 1 41 14
M  V30 44 1 42 16
M  V30 45 1 43 16
M  V30 46 1 44 18
M  V30 47 1 45 18
M  V30 48 1 46 19
M  V30 49 1 47 19
M  V30 50 1 48 20
M  V30 51 1 49 21
M  V30 52 1 50 21
M  V30 53 1 51 21
M  V30 54 1 22 52 CFG=1
M  V30 55 1 53 23
M  V30 56 1 54 23
M  V30 57 1 55 26
M  V30 58 1 8 56 CFG=3
M  V30 END BOND
M  V30 END CTAB
M  END
>  <i_epik_Tot_Q>  (1) 
1

>  <i_epik_Tot_abs_Q>  (1) 
1

>  <i_i_glide_confnum>  (1) 
45

>  <i_i_glide_lignum>  (1) 
78

>  <i_i_glide_posenum>  (1) 
106

>  <i_i_glide_rotatable_bonds>  (1) 
7

>  <i_lp_mmshare_version>  (1) 
72125

>  <i_m_source_file_index>  (1) 
45

>  <i_f3d_flags>  (1) 
0

>  <num_sample>  (1) 
100

>  <b_lp_Chiralities_Consistent>  (1) 
1

>  <r_epik_Charging_Adjusted_Penalty>  (1) 
0.87787264938008924

>  <r_epik_Ionization_Penalty>  (1) 
0.44040452980928141

>  <r_epik_Ionization_Penalty_Charging>  (1) 
0.43893632469004462

>  <r_epik_Ionization_Penalty_Neutral>  (1) 
0.0014682051192367804

>  <r_epik_State_Penalty>  (1) 
0.43893632469004457

>  <r_glide_ring_energy>  (1) 
0

>  <r_i_docking_score>  (1) 
-5.1907734265742214

>  <r_i_glide_ecoul>  (1) 
-2.0270240049336272

>  <r_i_glide_eff_state_penalty>  (1) 
0.43893632469004457

>  <r_i_glide_einternal>  (1) 
3.3397215736737387

>  <r_i_glide_emodel>  (1) 
-38.074323873591631

>  <r_i_glide_emodel_strain>  (1) 
0.31119874110302703

>  <r_i_glide_energy>  (1) 
-29.03539513252144

>  <r_i_glide_erotb>  (1) 
0.96983297192060391

>  <r_i_glide_esite>  (1) 
0

>  <r_i_glide_evdw>  (1) 
-27.008371127587814

>  <r_i_glide_gscore>  (1) 
-5.629709751264266

>  <r_i_glide_gscore_strain>  (1) 
0

>  <r_i_glide_hbond>  (1) 
0

>  <r_i_glide_ligand_efficiency>  (1) 
-0.19225086765089708

>  <r_i_glide_ligand_efficiency_ln>  (1) 
-1.2083264771183679

>  <r_i_glide_ligand_efficiency_sa>  (1) 
-0.57675260295269137

>  <r_i_glide_lipo>  (1) 
-2.6714386469229949

>  <r_i_glide_metal>  (1) 
-0

>  <r_i_glide_rewards>  (1) 
-2.2736319191424395

>  <r_lp_Energy>  (1) 
34.183026999999996

>  <r_lp_tautomer_probability>  (1) 
0.99995000000000001

>  <s_epik_cmdline>  (1) 
J2VwaWtfcHl0aG9uJywgJy1waHQnLCAnMS4wJywgJy1waCcsICc3LjQnLCAnLXRuJywgJzgnLCAnLW1hJywgJzUwMCcsICctaW1hZScsICc8aW5maWxlLm1hZT4nLCAnLW9tYWUnLCAnPG91dGZpbGUubWFlPic=

>  <s_epik_input>  (1) 
W0NIM11OMVtDSDJdW0NIMl1DKD1PKVtDQEBdMShbQ0gzXSlDKD1PKVtOSF1bQ0gyXVtDSDJdW0NIMl1bQ0BASF0yW0NIMl1bQ0gyXU4oQzI9TyljKFtjSF1bY0hdW2NIXTMpW2NIXWMzW05IMl0=

>  <s_glide_docking_method>  (1) 
confgen

>  <s_i_glide_gridfile>  (1) 
gpcr_drd2_6luq_protein_autoprepared_prepared

>  <s_lp_Force_Field>  (1) 
S-OPLS

>  <s_lp_Variant>  (1) 
DiffSBDD_44_num_sample_100-3

>  <s_m_source_file>  (1) 
generated__ligand_DiffSBDD_2026-05-06_prepared.sdf

>  <GenAI_Model>  (1) 
DiffSBDD

>  <Protein>  (1) 
generic_title2

$$$$
DiffSBDD_51_num_sample_100
     RDKit          3D

  0  0  0  0  0  0  0  0  0  0999 V3000
M  V30 BEGIN CTAB
M  V30 COUNTS 33 34 0 0 1
M  V30 BEGIN ATOM
M  V30 1 C 11.574289 6.579886 -4.727826 0
M  V30 2 C 10.580232 7.484570 -5.453208 0
M  V30 3 C 9.824065 6.834530 -6.628526 0
M  V30 4 O 11.514437 7.431883 -8.278385 0
M  V30 5 C 12.629332 8.739143 -3.708047 0
M  V30 6 C 10.044387 7.523685 -12.284691 0
M  V30 7 N 9.034868 6.821639 -11.463226 0 CHG=1
M  V30 8 C 10.951035 7.596178 -11.008038 0
M  V30 9 C 12.183895 7.277125 -3.483573 0
M  V30 10 C 9.741523 7.015133 -10.366841 0
M  V30 11 C 11.099650 8.915295 -5.704674 0
M  V30 12 N 9.434842 6.783312 -9.075627 0
M  V30 13 C 11.560321 9.588352 -4.414983 0
M  V30 14 C 10.372518 7.051228 -8.038850 0
M  V30 15 H 11.034783 5.707968 -4.365523 0
M  V30 16 H 12.282684 6.169329 -5.435360 0
M  V30 17 H 9.834840 7.562214 -4.692743 0
M  V30 18 H 8.808076 7.235119 -6.629094 0
M  V30 19 H 9.711487 5.769299 -6.455794 0
M  V30 20 H 12.885353 9.195778 -2.750928 0
M  V30 21 H 13.542561 8.761681 -4.291669 0
M  V30 22 H 10.460658 6.893399 -13.071767 0
M  V30 23 H 9.688590 8.490367 -12.639264 0
M  V30 24 H 11.154337 8.606421 -10.657807 0
M  V30 25 H 11.834641 6.969301 -11.016802 0
M  V30 26 H 11.434936 7.273463 -2.690998 0
M  V30 27 H 13.015250 6.692414 -3.091553 0
M  V30 28 H 11.946194 8.909743 -6.389643 0
M  V30 29 H 10.321163 9.517367 -6.172846 0
M  V30 30 H 8.027096 6.884707 -11.541479 0
M  V30 31 H 10.717794 9.769345 -3.748594 0
M  V30 32 H 11.951837 10.568436 -4.684926 0
M  V30 33 H 8.491363 6.455388 -8.900153 0
M  V30 END ATOM
M  V30 BEGIN BOND
M  V30 1 1 2 1
M  V30 2 1 3 2
M  V30 3 1 7 6
M  V30 4 1 8 6
M  V30 5 1 9 1
M  V30 6 1 9 5
M  V30 7 2 10 7
M  V30 8 1 10 8
M  V30 9 1 11 2
M  V30 10 1 12 10
M  V30 11 1 13 5
M  V30 12 1 13 11
M  V30 13 1 14 3
M  V30 14 2 14 4
M  V30 15 1 14 12
M  V30 16 1 15 1
M  V30 17 1 16 1
M  V30 18 1 17 2
M  V30 19 1 18 3
M  V30 20 1 19 3
M  V30 21 1 20 5
M  V30 22 1 21 5
M  V30 23 1 22 6
M  V30 24 1 23 6
M  V30 25 1 24 8
M  V30 26 1 25 8
M  V30 27 1 26 9
M  V30 28 1 27 9
M  V30 29 1 28 11
M  V30 30 1 29 11
M  V30 31 1 30 7
M  V30 32 1 31 13
M  V30 33 1 32 13
M  V30 34 1 33 12
M  V30 END BOND
M  V30 END CTAB
M  END
>  <i_epik_Tot_Q>  (1) 
1

>  <i_epik_Tot_abs_Q>  (1) 
1

>  <i_i_glide_confnum>  (1) 
3

>  <i_i_glide_lignum>  (1) 
96

>  <i_i_glide_posenum>  (1) 
15

>  <i_i_glide_rotatable_bonds>  (1) 
4

>  <i_lp_mmshare_version>  (1) 
72125

>  <i_m_source_file_index>  (1) 
52

>  <i_f3d_flags>  (1) 
0

>  <num_sample>  (1) 
100

>  <b_lp_Chiralities_Consistent>  (1) 
1

>  <r_epik_Charging_Adjusted_Penalty>  (1) 
0.0012355626880465899

>  <r_epik_Ionization_Penalty>  (1) 
0.0012355626882857627

>  <r_epik_Ionization_Penalty_Charging>  (1) 
0.0012355626880465899

>  <r_epik_Ionization_Penalty_Neutral>  (1) 
2.3917293134818898e-13

>  <r_epik_State_Penalty>  (1) 
-0

>  <r_glide_ring_energy>  (1) 
0

>  <r_i_docking_score>  (1) 
-5.1887704103118022

>  <r_i_glide_ecoul>  (1) 
-5.1618260574450305

>  <r_i_glide_eff_state_penalty>  (1) 
-0

>  <r_i_glide_einternal>  (1) 
2.9461441205575185

>  <r_i_glide_emodel>  (1) 
-28.413248485079045

>  <r_i_glide_emodel_strain>  (1) 
1.1035247455851618

>  <r_i_glide_energy>  (1) 
-19.937911569674398

>  <r_i_glide_erotb>  (1) 
0.84972591180096124

>  <r_i_glide_esite>  (1) 
-0.27584328380998707

>  <r_i_glide_evdw>  (1) 
-14.776085512229368

>  <r_i_glide_gscore>  (1) 
-5.1887704103118022

>  <r_i_glide_gscore_strain>  (1) 
0

>  <r_i_glide_hbond>  (1) 
-0.045345617449413206

>  <r_i_glide_ligand_efficiency>  (1) 
-0.37062645787941445

>  <r_i_glide_ligand_efficiency_ln>  (1) 
-1.4258556379655574

>  <r_i_glide_ligand_efficiency_sa>  (1) 
-0.89326249035673755

>  <r_i_glide_lipo>  (1) 
-1.7185627302883735

>  <r_i_glide_metal>  (1) 
-0

>  <r_i_glide_rewards>  (1) 
-2.4856665063367664

>  <r_lp_Energy>  (1) 
15.798371999999999

>  <r_lp_tautomer_probability>  (1) 
1

>  <s_epik_Chemistry_Notes>  (1) 
This compound has an imine and may undergo hydrolysis.

>  <s_epik_cmdline>  (1) 
J2VwaWtfcHl0aG9uJywgJy1waHQnLCAnMS4wJywgJy1waCcsICc3LjQnLCAnLXRuJywgJzgnLCAnLW1hJywgJzUwMCcsICctaW1hZScsICc8aW5maWxlLm1hZT4nLCAnLW9tYWUnLCAnPG91dGZpbGUubWFlPic=

>  <s_epik_input>  (1) 
W0NIMl0xW0NIMl1bQ0gyXVtDSDJdW0NIMl1bQ0hdMVtDSDJdQyg9TylbTkhdQzI9TltDSDJdW0NIMl0y

>  <s_glide_docking_method>  (1) 
confgen

>  <s_i_glide_gridfile>  (1) 
gpcr_drd2_6luq_protein_autoprepared_prepared

>  <s_lp_Force_Field>  (1) 
S-OPLS

>  <s_lp_Variant>  (1) 
DiffSBDD_51_num_sample_100-1

>  <s_m_source_file>  (1) 
generated__ligand_DiffSBDD_2026-05-06_prepared.sdf

>  <GenAI_Model>  (1) 
DiffSBDD

>  <Protein>  (1) 
generic_title2

$$$$
DiffSBDD_71_num_sample_100
     RDKit          3D

  0  0  0  0  0  0  0  0  0  0999 V3000
M  V30 BEGIN CTAB
M  V30 COUNTS 59 61 0 0 1
M  V30 BEGIN ATOM
M  V30 1 C 6.351289 6.244263 -17.265985 0
M  V30 2 C 12.581997 8.606331 -2.424100 0
M  V30 3 C 4.945169 6.764440 -17.582051 0
M  V30 4 C 6.802081 5.162716 -18.264744 0
M  V30 5 N 7.107699 5.196823 -10.667767 0
M  V30 6 O 8.902664 5.369286 -15.592585 0
M  V30 7 C 8.471225 5.027278 -11.163495 0 CFG=2
M  V30 8 N 10.638510 8.124114 -8.149965 0
M  V30 9 F 12.689910 6.235204 -2.182780 0
M  V30 10 C 11.384095 8.537243 -6.021703 0
M  V30 11 C 6.076957 4.400493 -11.316238 0
M  V30 12 C 9.322389 6.183163 -10.622828 0
M  V30 13 O 5.132793 4.198479 -13.491666 0
M  V30 14 C 11.434839 7.082694 -3.976086 0
M  V30 15 C 10.916661 6.832280 -8.750935 0
M  V30 16 N 6.372699 5.769294 -15.874484 0
M  V30 17 C 11.452033 8.514976 -4.529539 0 CFG=1
M  V30 18 S 7.617720 4.733649 -15.261696 0
M  V30 19 C 12.706934 9.090693 -3.873556 0
M  V30 20 C 11.879872 7.236836 -2.513407 0 CFG=2
M  V30 21 C 11.918897 8.969296 -8.214605 0
M  V30 22 O 7.349653 3.368056 -15.737448 0
M  V30 23 C 9.650983 6.051825 -9.127565 0
M  V30 24 N 12.234840 9.123914 -6.779392 0
M  V30 25 C 6.146633 4.424947 -12.841013 0
M  V30 26 N 10.454670 7.969731 -6.714373 0 CHG=1
M  V30 27 C 7.454623 4.722412 -13.453980 0
M  V30 28 C 8.518130 4.991723 -12.681889 0
M  V30 29 H 7.034819 7.084448 -17.350064 0
M  V30 30 H 13.541671 8.569308 -1.908471 0
M  V30 31 H 11.951511 9.300044 -1.865017 0
M  V30 32 H 4.877639 7.132387 -18.605930 0
M  V30 33 H 4.205646 5.976201 -17.458870 0
M  V30 34 H 4.667988 7.586267 -16.921132 0
M  V30 35 H 6.686571 5.508903 -19.291947 0
M  V30 36 H 7.855628 4.916033 -18.133360 0
M  V30 37 H 6.234763 4.239023 -18.161468 0
M  V30 38 H 7.037736 5.200552 -9.658016 0
M  V30 39 H 8.869565 4.074177 -10.812234 0
M  V30 40 H 5.102529 4.771279 -10.997473 0
M  V30 41 H 6.154311 3.369295 -10.978078 0
M  V30 42 H 10.250352 6.196498 -11.191669 0
M  V30 43 H 8.845355 7.144879 -10.819692 0
M  V30 44 H 10.477112 6.569304 -4.076818 0
M  V30 45 H 12.163510 6.484230 -4.523087 0
M  V30 46 H 11.482805 6.238502 -8.036104 0
M  V30 47 H 11.543540 6.969297 -9.632554 0
M  V30 48 H 6.133420 6.503221 -15.209206 0
M  V30 49 H 10.634839 9.137458 -4.192692 0
M  V30 50 H 13.608575 8.661655 -4.291668 0
M  V30 51 H 12.777680 10.169218 -3.959041 0
M  V30 52 H 11.034837 7.191075 -1.826064 0
M  V30 53 H 12.744911 8.480732 -8.733638 0
M  V30 54 H 13.042053 9.632982 -6.447835 0
M  V30 55 H 8.792994 6.333134 -8.514658 0
M  V30 56 H 9.837042 5.000126 -8.906781 0
M  V30 57 H 11.728103 9.926409 -8.697166 0
M  V30 58 H 9.472646 5.205652 -13.142186 0
M  V30 59 H 9.657067 7.445077 -6.376582 0
M  V30 END ATOM
M  V30 BEGIN BOND
M  V30 1 1 3 1
M  V30 2 1 4 1
M  V30 3 1 7 5
M  V30 4 1 11 5
M  V30 5 1 12 7
M  V30 6 1 15 8
M  V30 7 1 16 1
M  V30 8 1 17 10
M  V30 9 1 17 14
M  V30 10 2 18 6
M  V30 11 1 18 16
M  V30 12 1 19 2
M  V30 13 1 19 17
M  V30 14 1 20 2
M  V30 15 1 20 9
M  V30 16 1 20 14
M  V30 17 1 21 8
M  V30 18 2 22 18
M  V30 19 1 23 12
M  V30 20 1 23 15
M  V30 21 1 24 10
M  V30 22 1 24 21
M  V30 23 1 25 11
M  V30 24 2 25 13
M  V30 25 1 26 8
M  V30 26 2 26 10
M  V30 27 1 27 18
M  V30 28 1 27 25
M  V30 29 1 28 7
M  V30 30 2 28 27
M  V30 31 1 29 1
M  V30 32 1 30 2
M  V30 33 1 31 2
M  V30 34 1 32 3
M  V30 35 1 33 3
M  V30 36 1 34 3
M  V30 37 1 35 4
M  V30 38 1 36 4
M  V30 39 1 37 4
M  V30 40 1 38 5
M  V30 41 1 7 39 CFG=1
M  V30 42 1 40 11
M  V30 43 1 41 11
M  V30 44 1 42 12
M  V30 45 1 43 12
M  V30 46 1 44 14
M  V30 47 1 45 14
M  V30 48 1 46 15
M  V30 49 1 47 15
M  V30 50 1 48 16
M  V30 51 1 17 49 CFG=1
M  V30 52 1 50 19
M  V30 53 1 51 19
M  V30 54 1 20 52 CFG=1
M  V30 55 1 53 21
M  V30 56 1 54 24
M  V30 57 1 55 23
M  V30 58 1 56 23
M  V30 59 1 57 21
M  V30 60 1 58 28
M  V30 61 1 59 26
M  V30 END BOND
M  V30 END CTAB
M  END
>  <i_epik_Tot_Q>  (1) 
1

>  <i_epik_Tot_abs_Q>  (1) 
1

>  <i_i_glide_confnum>  (1) 
1533

>  <i_i_glide_lignum>  (1) 
143

>  <i_i_glide_posenum>  (1) 
64

>  <i_i_glide_rotatable_bonds>  (1) 
8

>  <i_lp_mmshare_version>  (1) 
72125

>  <i_m_source_file_index>  (1) 
72

>  <i_f3d_flags>  (1) 
0

>  <num_sample>  (1) 
100

>  <b_lp_Chiralities_Consistent>  (1) 
1

>  <r_epik_Charging_Adjusted_Penalty>  (1) 
1.5363623663438353e-06

>  <r_epik_Ionization_Penalty>  (1) 
0.0003005008715709513

>  <r_epik_Ionization_Penalty_Charging>  (1) 
1.5363623663438353e-06

>  <r_epik_Ionization_Penalty_Neutral>  (1) 
0.00029896450920460744

>  <r_epik_State_Penalty>  (1) 
-0

>  <r_glide_ring_energy>  (1) 
0

>  <r_i_docking_score>  (1) 
-5.1878953828490886

>  <r_i_glide_ecoul>  (1) 
-0.34116831878077991

>  <r_i_glide_eff_state_penalty>  (1) 
-0

>  <r_i_glide_einternal>  (1) 
9.0007293580633974

>  <r_i_glide_emodel>  (1) 
-42.651501436302048

>  <r_i_glide_emodel_strain>  (1) 
0.93043182766201937

>  <r_i_glide_energy>  (1) 
-35.243663708469548

>  <r_i_glide_erotb>  (1) 
0.79707636493019229

>  <r_i_glide_esite>  (1) 
-0.0040669493983905517

>  <r_i_glide_evdw>  (1) 
-34.902495389688767

>  <r_i_glide_gscore>  (1) 
-5.1878953828490886

>  <r_i_glide_gscore_strain>  (1) 
0

>  <r_i_glide_hbond>  (1) 
0

>  <r_i_glide_ligand_efficiency>  (1) 
-0.18528197795889603

>  <r_i_glide_ligand_efficiency_ln>  (1) 
-1.1975185775888679

>  <r_i_glide_ligand_efficiency_sa>  (1) 
-0.56262521095729334

>  <r_i_glide_lipo>  (1) 
-2.0883473466184976

>  <r_i_glide_metal>  (1) 
-0

>  <r_i_glide_rewards>  (1) 
-2.0962574344608376

>  <r_lp_Energy>  (1) 
26.720799

>  <r_lp_tautomer_probability>  (1) 
1

>  <s_epik_Chemistry_Notes>  (1) 
This compound has an imine and may undergo hydrolysis. This compound contains an acetal/aminal-like group ( X-CH(R)-Y where X, Y are N, S, or O) that may be acid/base labile, releasing an aldehyde.

>  <s_epik_cmdline>  (1) 
J2VwaWtfcHl0aG9uJywgJy1waHQnLCAnMS4wJywgJy1waCcsICc3LjQnLCAnLXRuJywgJzgnLCAnLW1hJywgJzUwMCcsICctaW1hZScsICc8aW5maWxlLm1hZT4nLCAnLW9tYWUnLCAnPG91dGZpbGUubWFlPic=

>  <s_epik_input>  (1) 
W0NIM11bQ0hdKFtDSDNdKVtOSF1TKD1PKSg9TylDKD1bQ0hdMSlDKD1PKVtDSDJdW05IXVtDQEBIXTFbQ0gyXVtDSDJdW0NIMl1OMltDSDJdTj1DKFtOSF0yKVtDQEhdM1tDSDJdW0NAQEhdKEYpW0NIMl1bQ0gyXTM=

>  <s_glide_docking_method>  (1) 
confgen

>  <s_i_glide_gridfile>  (1) 
gpcr_drd2_6luq_protein_autoprepared_prepared

>  <s_lp_Force_Field>  (1) 
S-OPLS

>  <s_lp_Variant>  (1) 
DiffSBDD_71_num_sample_100-1

>  <s_m_source_file>  (1) 
generated__ligand_DiffSBDD_2026-05-06_prepared.sdf

>  <GenAI_Model>  (1) 
DiffSBDD

>  <Protein>  (1) 
generic_title2

$$$$
DiffSBDD_75_num_sample_100
     RDKit          3D

  0  0  0  0  0  0  0  0  0  0999 V3000
M  V30 BEGIN CTAB
M  V30 COUNTS 76 81 0 0 1
M  V30 BEGIN ATOM
M  V30 1 C 7.019662 1.603925 -13.099426 0
M  V30 2 C 6.771094 3.054107 -12.690017 0
M  V30 3 C 9.565270 6.150928 -11.038324 0
M  V30 4 C 10.363002 7.543938 -6.254210 0 CFG=2
M  V30 5 F 6.633632 7.653975 -15.600141 0
M  V30 6 C 8.178759 1.345699 -14.056577 0
M  V30 7 C 8.085379 3.739509 -14.878843 0 CFG=1
M  V30 8 N 6.779291 5.447882 -13.576807 0
M  V30 9 O 12.812081 8.963174 -8.933490 0 CHG=-1
M  V30 10 C 8.106017 2.239927 -15.332456 0 CFG=2
M  V30 11 C 6.445815 -0.487092 -18.496918 0 CFG=1
M  V30 12 N 12.452789 8.423612 -9.968565 0 CHG=1
M  V30 13 C 8.874098 5.819234 -7.428704 0
M  V30 14 O 13.033783 8.538807 -11.037192 0
M  V30 15 C 8.189226 4.853901 -15.971571 0
M  V30 16 C 11.232281 7.544613 -9.925362 0
M  V30 17 C 6.394395 1.024748 -18.438847 0 CFG=1
M  V30 18 C 9.737583 6.169586 -6.210743 0
M  V30 19 C 5.688564 0.208445 -17.388370 0 CFG=2
M  V30 20 C 7.673213 6.207505 -12.846839 0
M  V30 21 N 11.147238 7.695727 -7.466149 0
M  V30 22 C 6.862184 5.456446 -16.532900 0
M  V30 23 N 7.012990 1.868781 -16.284527 0 CFG=1 CHG=1
M  V30 24 C 7.406507 1.885876 -17.718661 0
M  V30 25 C 5.785338 -1.267632 -19.606916 0
M  V30 26 O 6.319072 0.687767 -12.681846 0
M  V30 27 C 5.627950 6.074487 -14.231877 0
M  V30 28 O 7.693796 -1.027363 -18.107085 0
M  V30 29 C 6.023323 6.473869 -15.672768 0 CFG=1
M  V30 30 O 7.492745 7.406826 -12.643849 0
M  V30 31 O 11.657982 9.116792 -4.911271 0
M  V30 32 C 6.282025 0.589447 -16.057031 0
M  V30 33 C 9.520652 6.294300 -8.716302 0
M  V30 34 C 10.677164 7.017817 -11.121991 0
M  V30 35 N 9.007052 5.771538 -9.863664 0
M  V30 36 C 8.967607 5.529072 -12.309613 0
M  V30 37 C 11.347774 7.743565 -5.067531 0
M  V30 38 C 10.626146 7.190659 -8.687729 0
M  V30 39 C 6.948931 4.014500 -13.876627 0 CFG=2
M  V30 40 H 7.449430 3.291254 -11.893628 0
M  V30 41 H 5.765890 3.152074 -12.277260 0
M  V30 42 H 9.577040 8.299862 -6.218934 0
M  V30 43 H 9.069825 1.583270 -13.486351 0
M  V30 44 H 8.264400 0.283565 -14.283073 0
M  V30 45 H 9.018649 3.815528 -14.325903 0
M  V30 46 H 9.025801 2.083009 -15.892252 0
M  V30 47 H 7.844792 6.164881 -7.323471 0
M  V30 48 H 8.785899 4.734410 -7.497326 0
M  V30 49 H 8.792472 4.477917 -16.797748 0
M  V30 50 H 8.779800 5.680391 -15.573701 0
M  V30 51 H 5.761460 1.544020 -19.154638 0
M  V30 52 H 10.574820 5.478365 -6.210412 0
M  V30 53 H 9.199057 6.030756 -5.281065 0
M  V30 54 H 4.604901 0.160513 -17.424763 0
M  V30 55 H 11.870560 8.403207 -7.493641 0
M  V30 56 H 6.234839 4.646124 -16.876100 0
M  V30 57 H 7.126984 5.982507 -17.450966 0
M  V30 58 H 7.423571 2.894370 -18.131649 0
M  V30 59 H 8.394542 1.452482 -17.872547 0
M  V30 60 H 4.874439 -0.772095 -19.937536 0
M  V30 61 H 6.459229 -1.348689 -20.458786 0
M  V30 62 H 5.528649 -2.266654 -19.258802 0
M  V30 63 H 4.776383 5.391082 -14.265384 0
M  V30 64 H 5.254414 6.931101 -13.667650 0
M  V30 65 H 7.618500 -1.969291 -18.042950 0
M  V30 66 H 5.099645 6.687706 -16.218440 0
M  V30 67 H 11.868069 9.480325 -5.758324 0
M  V30 68 H 6.919057 -0.232528 -15.735327 0
M  V30 69 H 5.484794 0.716765 -15.326095 0
M  V30 70 H 11.109299 7.255176 -12.082283 0
M  V30 71 H 9.709891 5.643645 -13.099318 0
M  V30 72 H 8.921677 4.464292 -12.150793 0
M  V30 73 H 12.233959 7.124146 -5.182947 0
M  V30 74 H 11.029153 7.374444 -4.103582 0
M  V30 75 H 6.074897 3.746160 -14.464966 0
M  V30 76 H 6.304505 2.579466 -16.190331 0
M  V30 END ATOM
M  V30 BEGIN BOND
M  V30 1 1 2 1
M  V30 2 1 6 1
M  V30 3 1 10 6
M  V30 4 1 10 7
M  V30 5 1 12 9
M  V30 6 2 14 12
M  V30 7 1 15 7
M  V30 8 1 16 12
M  V30 9 1 17 11
M  V30 10 1 18 4
M  V30 11 1 18 13
M  V30 12 1 19 11
M  V30 13 1 19 17
M  V30 14 1 20 8
M  V30 15 1 21 4
M  V30 16 1 22 15
M  V30 17 1 23 10
M  V30 18 1 24 17
M  V30 19 1 24 23
M  V30 20 1 25 11
M  V30 21 2 26 1
M  V30 22 1 27 8
M  V30 23 1 11 28 CFG=1
M  V30 24 1 29 5
M  V30 25 1 29 22
M  V30 26 1 29 27
M  V30 27 2 30 20
M  V30 28 1 32 19
M  V30 29 1 32 23
M  V30 30 1 33 13
M  V30 31 2 34 3
M  V30 32 1 34 16
M  V30 33 1 35 3
M  V30 34 2 35 33
M  V30 35 1 36 3
M  V30 36 1 36 20
M  V30 37 1 37 4
M  V30 38 1 37 31
M  V30 39 2 38 16
M  V30 40 1 38 21
M  V30 41 1 38 33
M  V30 42 1 39 2
M  V30 43 1 39 7
M  V30 44 1 39 8
M  V30 45 1 40 2
M  V30 46 1 41 2
M  V30 47 1 4 42 CFG=3
M  V30 48 1 43 6
M  V30 49 1 44 6
M  V30 50 1 7 45 CFG=1
M  V30 51 1 10 46 CFG=3
M  V30 52 1 47 13
M  V30 53 1 48 13
M  V30 54 1 49 15
M  V30 55 1 50 15
M  V30 56 1 17 51 CFG=3
M  V30 57 1 52 18
M  V30 58 1 53 18
M  V30 59 1 19 54 CFG=1
M  V30 60 1 55 21
M  V30 61 1 56 22
M  V30 62 1 57 22
M  V30 63 1 58 24
M  V30 64 1 59 24
M  V30 65 1 60 25
M  V30 66 1 61 25
M  V30 67 1 62 25
M  V30 68 1 63 27
M  V30 69 1 64 27
M  V30 70 1 65 28
M  V30 71 1 29 66 CFG=3
M  V30 72 1 67 31
M  V30 73 1 68 32
M  V30 74 1 69 32
M  V30 75 1 70 34
M  V30 76 1 71 36
M  V30 77 1 72 36
M  V30 78 1 73 37
M  V30 79 1 74 37
M  V30 80 1 39 75 CFG=3
M  V30 81 1 23 76 CFG=3
M  V30 END BOND
M  V30 END CTAB
M  END
>  <i_epik_Tot_Q>  (1) 
1

>  <i_epik_Tot_abs_Q>  (1) 
3

>  <i_i_glide_confnum>  (1) 
156

>  <i_i_glide_lignum>  (1) 
151

>  <i_i_glide_posenum>  (1) 
181

>  <i_i_glide_rotatable_bonds>  (1) 
8

>  <i_lp_mmshare_version>  (1) 
72125

>  <i_m_source_file_index>  (1) 
76

>  <i_f3d_flags>  (1) 
0

>  <num_sample>  (1) 
100

>  <b_lp_Chiralities_Consistent>  (1) 
1

>  <r_epik_Charging_Adjusted_Penalty>  (1) 
0.015891369841317948

>  <r_epik_Ionization_Penalty>  (1) 
0.0079711574059170582

>  <r_epik_Ionization_Penalty_Charging>  (1) 
0.0079456849206589655

>  <r_epik_Ionization_Penalty_Neutral>  (1) 
2.5472485258093083e-05

>  <r_epik_State_Penalty>  (1) 
0.0079456849206589828

>  <r_glide_ring_energy>  (1) 
0

>  <r_i_docking_score>  (1) 
-5.1810763005628591

>  <r_i_glide_ecoul>  (1) 
-1.1847415620594615

>  <r_i_glide_eff_state_penalty>  (1) 
0.0079456849206589828

>  <r_i_glide_einternal>  (1) 
11.257197857959302

>  <r_i_glide_emodel>  (1) 
-26.199342152544666

>  <r_i_glide_emodel_strain>  (1) 
0.45694299488877732

>  <r_i_glide_energy>  (1) 
-30.080350009211855

>  <r_i_glide_erotb>  (1) 
0.34657339541443727

>  <r_i_glide_esite>  (1) 
-0.021997094290976005

>  <r_i_glide_evdw>  (1) 
-28.895608447152394

>  <r_i_glide_gscore>  (1) 
-5.1890219854835182

>  <r_i_glide_gscore_strain>  (1) 
0

>  <r_i_glide_hbond>  (1) 
0

>  <r_i_glide_ligand_efficiency>  (1) 
-0.13284811027084253

>  <r_i_glide_ligand_efficiency_ln>  (1) 
-1.1109698324375545

>  <r_i_glide_ligand_efficiency_sa>  (1) 
-0.45051603173328914

>  <r_i_glide_lipo>  (1) 
-2.3287774324750012

>  <r_i_glide_metal>  (1) 
-0

>  <r_i_glide_rewards>  (1) 
-1.5623291974654392

>  <r_lp_Energy>  (1) 
44.445350999999995

>  <r_lp_tautomer_probability>  (1) 
0.99999997999999912

>  <s_epik_cmdline>  (1) 
J2VwaWtfcHl0aG9uJywgJy1waHQnLCAnMS4wJywgJy1waCcsICc3LjQnLCAnLXRuJywgJzgnLCAnLW1hJywgJzUwMCcsICctaW1hZScsICc8aW5maWxlLm1hZT4nLCAnLW9tYWUnLCAnPG91dGZpbGUubWFlPic=

>  <s_epik_input>  (1) 
W0NIM11bQ0BdMShbT0hdKVtDQEhdKFtDQEhdMTIpW0NIMl1OKFtDSDJdMilbQ0BASF0zW0NIMl1DKD1PKVtDSDJdW0NASF0oW0NAQEhdMzQpTihbQ0gyXVtDQEBIXShGKVtDSDJdW0NIMl00KUMoPU8pW0NIMl1jKG41KVtjSF1jKFtOK10oW08tXSk9TyljKGM1NilbTkhdW0NAQEhdKFtDSDJdW0NIMl02KVtDSDJdW09IXQ==

>  <s_glide_docking_method>  (1) 
confgen

>  <s_i_glide_gridfile>  (1) 
gpcr_drd2_6luq_protein_autoprepared_prepared

>  <s_lp_Force_Field>  (1) 
S-OPLS

>  <s_lp_Variant>  (1) 
DiffSBDD_75_num_sample_100-2

>  <s_m_source_file>  (1) 
generated__ligand_DiffSBDD_2026-05-06_prepared.sdf

>  <GenAI_Model>  (1) 
DiffSBDD

>  <Protein>  (1) 
generic_title2

$$$$
DiffSBDD_88_num_sample_100
     RDKit          3D

  0  0  0  0  0  0  0  0  0  0999 V3000
M  V30 BEGIN CTAB
M  V30 COUNTS 57 61 0 0 1
M  V30 BEGIN ATOM
M  V30 1 S 9.834973 7.155138 -6.708760 0
M  V30 2 O 8.634792 8.547901 -12.286368 0
M  V30 3 C 10.286075 7.551734 -10.834631 0
M  V30 4 O 11.586528 1.953974 -19.629069 0
M  V30 5 F 13.111798 4.153409 -19.423906 0
M  V30 6 C 10.520698 6.823021 -8.357887 0 CFG=1
M  V30 7 C 8.313185 4.115701 -16.220684 0
M  V30 8 C 8.902231 3.332566 -18.104645 0
M  V30 9 C 10.731070 4.544209 -16.726560 0
M  V30 10 C 10.305820 7.920310 -9.376633 0 CFG=1
M  V30 11 C 8.922409 7.404894 -11.506124 0 CFG=2
M  V30 12 C 11.005254 8.475297 -6.384439 0
M  V30 13 N 7.624038 3.037718 -16.396947 0
M  V30 14 C 7.385828 6.041985 -13.111550 0 CFG=1
M  V30 15 O 11.034650 9.102712 -5.327036 0
M  V30 16 N 8.259027 4.976840 -15.133480 0
M  V30 17 C 11.858412 4.261709 -18.981981 0 CFG=2
M  V30 18 C 11.967183 8.766085 -7.522389 0
M  V30 19 C 8.926182 4.849111 -11.487601 0
M  V30 20 C 9.300384 4.522804 -17.277294 0 CFG=2
M  V30 21 C 11.846204 4.424574 -17.474880 0
M  V30 22 C 9.538271 3.204987 -19.475504 0
M  V30 23 C 7.344929 4.782908 -14.012697 0 CFG=1
M  V30 24 O 11.323486 7.369294 -11.470403 0
M  V30 25 C 6.137346 6.132521 -12.210076 0
M  V30 26 C 11.047094 3.033170 -19.385730 0
M  V30 27 C 8.742662 6.122364 -12.339103 0 CFG=2
M  V30 28 C 7.655392 3.505251 -13.191436 0
M  V30 29 C 11.630749 7.807298 -8.637804 0 CFG=1
M  V30 30 N 8.054646 2.510391 -17.661565 0
M  V30 31 C 8.963157 3.630711 -12.403554 0
M  V30 32 H 7.724570 8.502108 -12.535198 0
M  V30 33 H 10.609555 5.777257 -8.647165 0
M  V30 34 H 10.831755 4.660990 -15.656376 0
M  V30 35 H 9.612094 8.707201 -9.083615 0
M  V30 36 H 8.234793 7.350525 -10.691783 0
M  V30 37 H 7.321568 6.903016 -13.777257 0
M  V30 38 H 8.841937 5.797539 -15.070867 0
M  V30 39 H 11.438953 5.151900 -19.451397 0
M  V30 40 H 11.834673 9.782663 -7.878379 0
M  V30 41 H 13.002216 8.633886 -7.207998 0
M  V30 42 H 9.843520 4.875805 -10.910277 0
M  V30 43 H 8.130819 4.753035 -10.748586 0
M  V30 44 H 9.007716 5.464554 -17.743562 0
M  V30 45 H 12.811581 4.450234 -16.989489 0
M  V30 46 H 9.108718 2.348122 -19.994600 0
M  V30 47 H 9.304084 4.090726 -20.065936 0
M  V30 48 H 6.345112 4.688056 -14.437636 0
M  V30 49 H 6.063097 5.297917 -11.514839 0
M  V30 50 H 6.126858 7.049342 -11.619857 0
M  V30 51 H 5.229380 6.131549 -12.813296 0
M  V30 52 H 9.544337 6.135175 -13.078915 0
M  V30 53 H 7.697373 2.618441 -13.820940 0
M  V30 54 H 6.840670 3.315879 -12.492779 0
M  V30 55 H 12.492250 7.429525 -9.186371 0
M  V30 56 H 9.801115 3.747072 -13.090045 0
M  V30 57 H 9.149034 2.721904 -11.833562 0
M  V30 END ATOM
M  V30 BEGIN BOND
M  V30 1 1 6 1
M  V30 2 1 10 3
M  V30 3 1 10 6
M  V30 4 1 11 2
M  V30 5 1 11 3
M  V30 6 1 12 1
M  V30 7 2 13 7
M  V30 8 2 15 12
M  V30 9 1 16 7
M  V30 10 1 17 5
M  V30 11 1 18 12
M  V30 12 1 20 7
M  V30 13 1 20 8
M  V30 14 1 20 9
M  V30 15 2 21 9
M  V30 16 1 21 17
M  V30 17 1 22 8
M  V30 18 1 23 14
M  V30 19 1 23 16
M  V30 20 2 24 3
M  V30 21 1 25 14
M  V30 22 2 26 4
M  V30 23 1 26 17
M  V30 24 1 26 22
M  V30 25 1 27 11
M  V30 26 1 27 14
M  V30 27 1 27 19
M  V30 28 1 28 23
M  V30 29 1 29 6
M  V30 30 1 29 10
M  V30 31 1 29 18
M  V30 32 2 30 8
M  V30 33 1 30 13
M  V30 34 1 31 19
M  V30 35 1 31 28
M  V30 36 1 32 2
M  V30 37 1 6 33 CFG=3
M  V30 38 1 34 9
M  V30 39 1 10 35 CFG=1
M  V30 40 1 11 36 CFG=1
M  V30 41 1 14 37 CFG=3
M  V30 42 1 38 16
M  V30 43 1 17 39 CFG=3
M  V30 44 1 40 18
M  V30 45 1 41 18
M  V30 46 1 42 19
M  V30 47 1 43 19
M  V30 48 1 20 44 CFG=3
M  V30 49 1 45 21
M  V30 50 1 46 22
M  V30 51 1 47 22
M  V30 52 1 23 48 CFG=3
M  V30 53 1 49 25
M  V30 54 1 50 25
M  V30 55 1 51 25
M  V30 56 1 27 52 CFG=3
M  V30 57 1 53 28
M  V30 58 1 54 28
M  V30 59 1 29 55 CFG=3
M  V30 60 1 56 31
M  V30 61 1 57 31
M  V30 END BOND
M  V30 END CTAB
M  END
>  <i_epik_Tot_Q>  (1) 
0

>  <i_epik_Tot_abs_Q>  (1) 
0

>  <i_i_glide_confnum>  (1) 
1

>  <i_i_glide_lignum>  (1) 
178

>  <i_i_glide_posenum>  (1) 
257

>  <i_i_glide_rotatable_bonds>  (1) 
6

>  <i_lp_mmshare_version>  (1) 
72125

>  <i_m_source_file_index>  (1) 
89

>  <i_f3d_flags>  (1) 
0

>  <num_sample>  (1) 
100

>  <b_lp_Chiralities_Consistent>  (1) 
1

>  <r_epik_Charging_Adjusted_Penalty>  (1) 
0

>  <r_epik_Ionization_Penalty>  (1) 
0.0051441323120346551

>  <r_epik_Ionization_Penalty_Charging>  (1) 
0

>  <r_epik_Ionization_Penalty_Neutral>  (1) 
0.0051441323120346551

>  <r_epik_State_Penalty>  (1) 
-0

>  <r_glide_ring_energy>  (1) 
1.1418401425494451

>  <r_i_docking_score>  (1) 
-5.1671407490979027

>  <r_i_glide_ecoul>  (1) 
-4.4505547936156002

>  <r_i_glide_eff_state_penalty>  (1) 
-0

>  <r_i_glide_einternal>  (1) 
6.4094682210301812

>  <r_i_glide_emodel>  (1) 
-58.615855356658592

>  <r_i_glide_emodel_strain>  (1) 
0

>  <r_i_glide_energy>  (1) 
-45.508606803319893

>  <r_i_glide_erotb>  (1) 
0.49992101663368649

>  <r_i_glide_esite>  (1) 
-0.04355711908104528

>  <r_i_glide_evdw>  (1) 
-41.058052009704291

>  <r_i_glide_gscore>  (1) 
-5.1671407490979027

>  <r_i_glide_gscore_strain>  (1) 
0

>  <r_i_glide_hbond>  (1) 
0

>  <r_i_glide_ligand_efficiency>  (1) 
-0.16668195964831944

>  <r_i_glide_ligand_efficiency_ln>  (1) 
-1.1653485927679592

>  <r_i_glide_ligand_efficiency_sa>  (1) 
-0.52361148314191364

>  <r_i_glide_lipo>  (1) 
-1.3470145869886394

>  <r_i_glide_metal>  (1) 
-0

>  <r_i_glide_rewards>  (1) 
-1.5560042401343497

>  <r_lp_Energy>  (1) 
20.470316

>  <r_lp_tautomer_probability>  (1) 
1

>  <s_epik_Chemistry_Notes>  (1) 
This compound has an imine and may undergo hydrolysis.

>  <s_epik_cmdline>  (1) 
J2VwaWtfcHl0aG9uJywgJy1waHQnLCAnMS4wJywgJy1waCcsICc3LjQnLCAnLXRuJywgJzgnLCAnLW1hJywgJzUwMCcsICctaW1hZScsICc8aW5maWxlLm1hZT4nLCAnLW9tYWUnLCAnPG91dGZpbGUubWFlPic=

>  <s_epik_input>  (1) 
UzFDKD1PKVtDSDJdW0NAQEhdKFtDQEBIXTEyKVtDQEhdMkMoPU8pW0NAQEhdKFtPSF0pW0NASF0zW0NIMl1bQ0gyXVtDSDJdW0NAQEhdKFtDQEhdM1tDSDNdKVtOSF1DKD1OTjQpW0NASF0oQz00NSlbQ0hdPVtDSF1bQ0BASF0oRilDKD1PKVtDSDJdNQ==

>  <s_glide_docking_method>  (1) 
confgen

>  <s_i_glide_gridfile>  (1) 
gpcr_drd2_6luq_protein_autoprepared_prepared

>  <s_lp_Force_Field>  (1) 
S-OPLS

>  <s_lp_Variant>  (1) 
DiffSBDD_88_num_sample_100-1

>  <s_m_source_file>  (1) 
generated__ligand_DiffSBDD_2026-05-06_prepared.sdf

>  <GenAI_Model>  (1) 
DiffSBDD

>  <Protein>  (1) 
generic_title2

$$$$
DiffSBDD_16_num_sample_100
     RDKit          3D

  0  0  0  0  0  0  0  0  0  0999 V3000
M  V30 BEGIN CTAB
M  V30 COUNTS 54 57 0 0 1
M  V30 BEGIN ATOM
M  V30 1 C 5.836947 1.358011 -13.159334 0
M  V30 2 C 5.037597 4.492248 -13.524494 0
M  V30 3 C 12.653888 8.570131 -8.348797 0
M  V30 4 C 12.298077 8.162200 -9.644270 0
M  V30 5 C 8.961544 6.332915 -12.954551 0
M  V30 6 C 7.933737 1.697550 -15.049819 0 CFG=1
M  V30 7 C 6.126658 3.908727 -12.664026 0 CFG=1
M  V30 8 C 11.696706 8.567724 -7.318300 0
M  V30 9 C 10.032644 7.712851 -8.873030 0
M  V30 10 C 10.986006 7.723984 -9.907073 0
M  V30 11 C 9.304899 4.179242 -11.495413 0
M  V30 12 C 10.384511 8.139524 -7.582207 0
M  V30 13 C 6.698004 0.851704 -15.365834 0 CFG=1
M  V30 14 C 10.619375 7.215509 -11.287502 0
M  V30 15 C 9.208568 7.399537 -11.857148 0
M  V30 16 N 9.435004 8.127943 -6.567611 0
M  V30 17 C 6.300646 4.272973 -11.196412 0
M  V30 18 C 8.449985 4.930899 -12.535508 0 CFG=1
M  V30 19 C 7.872103 0.828475 -16.280004 0
M  V30 20 O 7.173674 2.825213 -14.621111 0
M  V30 21 C 6.753085 2.621242 -13.253066 0 CFG=2
M  V30 22 C 6.331135 0.202796 -14.061339 0
M  V30 23 N 6.994995 5.008119 -12.245245 0 CFG=1 CHG=1
M  V30 24 H 5.768036 1.010841 -12.128162 0
M  V30 25 H 4.833375 1.619696 -13.492605 0
M  V30 26 H 4.147640 3.863622 -13.490528 0
M  V30 27 H 4.779426 5.502161 -13.213259 0
M  V30 28 H 5.408662 4.573778 -14.547618 0
M  V30 29 H 13.661806 8.898667 -8.147355 0
M  V30 30 H 13.036484 8.171992 -10.432263 0
M  V30 31 H 8.261367 6.745160 -13.686232 0
M  V30 32 H 9.897700 6.169659 -13.491137 0
M  V30 33 H 8.634973 1.360614 -14.291027 0
M  V30 34 H 11.971563 8.891998 -6.326585 0
M  V30 35 H 9.035097 7.367127 -9.066444 0
M  V30 36 H 10.333922 4.171345 -11.844054 0
M  V30 37 H 9.261468 4.631222 -10.503504 0
M  V30 38 H 9.038963 3.133704 -11.375753 0
M  V30 39 H 5.842470 1.312351 -15.854918 0
M  V30 40 H 11.398846 7.383283 -12.029011 0
M  V30 41 H 10.639997 6.169385 -11.105002 0
M  V30 42 H 8.442178 7.301273 -11.093912 0
M  V30 43 H 9.116601 8.410885 -12.257628 0
M  V30 44 H 9.679381 8.344727 -5.614898 0
M  V30 45 H 8.501821 7.762176 -6.730149 0
M  V30 46 H 6.990905 3.769301 -10.535475 0
M  V30 47 H 5.571742 4.924093 -10.716547 0
M  V30 48 H 8.569613 4.378845 -13.462895 0
M  V30 49 H 7.785303 1.332113 -17.240665 0
M  V30 50 H 8.483878 -0.071207 -16.282431 0
M  V30 51 H 7.632959 2.374087 -12.670283 0
M  V30 52 H 5.560628 -0.549113 -14.226757 0
M  V30 53 H 7.196628 -0.297715 -13.627172 0
M  V30 54 H 6.572479 5.906493 -12.428834 0
M  V30 END ATOM
M  V30 BEGIN BOND
M  V30 1 1 4 3
M  V30 2 1 7 2 CFG=3
M  V30 3 2 8 3
M  V30 4 2 10 4
M  V30 5 1 10 9
M  V30 6 1 12 8
M  V30 7 2 12 9
M  V30 8 1 13 6
M  V30 9 1 14 10
M  V30 10 1 15 5
M  V30 11 1 15 14
M  V30 12 1 16 12
M  V30 13 1 17 7
M  V30 14 1 18 5
M  V30 15 1 18 11
M  V30 16 1 19 6
M  V30 17 1 19 13
M  V30 18 1 20 6
M  V30 19 1 21 1
M  V30 20 1 21 7
M  V30 21 1 21 20
M  V30 22 1 22 1
M  V30 23 1 22 13
M  V30 24 1 23 7
M  V30 25 1 23 17
M  V30 26 1 23 18
M  V30 27 1 24 1
M  V30 28 1 25 1
M  V30 29 1 26 2
M  V30 30 1 27 2
M  V30 31 1 28 2
M  V30 32 1 29 3
M  V30 33 1 30 4
M  V30 34 1 31 5
M  V30 35 1 32 5
M  V30 36 1 6 33 CFG=1
M  V30 37 1 34 8
M  V30 38 1 35 9
M  V30 39 1 36 11
M  V30 40 1 37 11
M  V30 41 1 38 11
M  V30 42 1 13 39 CFG=3
M  V30 43 1 40 14
M  V30 44 1 41 14
M  V30 45 1 42 15
M  V30 46 1 43 15
M  V30 47 1 44 16
M  V30 48 1 45 16
M  V30 49 1 46 17
M  V30 50 1 47 17
M  V30 51 1 18 48 CFG=3
M  V30 52 1 49 19
M  V30 53 1 50 19
M  V30 54 1 21 51 CFG=1
M  V30 55 1 52 22
M  V30 56 1 53 22
M  V30 57 1 23 54 CFG=3
M  V30 END BOND
M  V30 END CTAB
M  END
>  <i_epik_Tot_Q>  (1) 
1

>  <i_epik_Tot_abs_Q>  (1) 
1

>  <i_i_glide_confnum>  (1) 
187

>  <i_i_glide_lignum>  (1) 
26

>  <i_i_glide_posenum>  (1) 
235

>  <i_i_glide_rotatable_bonds>  (1) 
6

>  <i_lp_mmshare_version>  (1) 
72125

>  <i_m_source_file_index>  (1) 
17

>  <i_f3d_flags>  (1) 
0

>  <num_sample>  (1) 
100

>  <b_lp_Chiralities_Consistent>  (1) 
1

>  <r_epik_Charging_Adjusted_Penalty>  (1) 
0.11272327168216571

>  <r_epik_Ionization_Penalty>  (1) 
0.057493963086777844

>  <r_epik_Ionization_Penalty_Charging>  (1) 
0.056361635841082856

>  <r_epik_Ionization_Penalty_Neutral>  (1) 
0.0011323272456949893

>  <r_epik_State_Penalty>  (1) 
0.056361635841082856

>  <r_glide_ring_energy>  (1) 
0

>  <r_i_docking_score>  (1) 
-5.1620372661084719

>  <r_i_glide_ecoul>  (1) 
-3.6784076466579707

>  <r_i_glide_eff_state_penalty>  (1) 
0.056361635841082856

>  <r_i_glide_einternal>  (1) 
16.606690319328401

>  <r_i_glide_emodel>  (1) 
-32.982738917863131

>  <r_i_glide_emodel_strain>  (1) 
2.4875531171894778

>  <r_i_glide_energy>  (1) 
-31.764043186648252

>  <r_i_glide_erotb>  (1) 
1.1214719841998091

>  <r_i_glide_esite>  (1) 
-0.045501376449567199

>  <r_i_glide_evdw>  (1) 
-28.085635539990282

>  <r_i_glide_gscore>  (1) 
-5.2183989019495547

>  <r_i_glide_gscore_strain>  (1) 
0

>  <r_i_glide_hbond>  (1) 
-0.015216541951247154

>  <r_i_glide_ligand_efficiency>  (1) 
-0.22443640287428138

>  <r_i_glide_ligand_efficiency_ln>  (1) 
-1.2482274177111095

>  <r_i_glide_ligand_efficiency_sa>  (1) 
-0.63826727521083182

>  <r_i_glide_lipo>  (1) 
-2.2431716050578339

>  <r_i_glide_metal>  (1) 
-0

>  <r_i_glide_rewards>  (1) 
-2.0799384386925057

>  <r_lp_Energy>  (1) 
57.573436999999998

>  <s_epik_cmdline>  (1) 
J2VwaWtfcHl0aG9uJywgJy1waHQnLCAnMS4wJywgJy1waCcsICc3LjQnLCAnLXRuJywgJzgnLCAnLW1hJywgJzUwMCcsICctaW1hZScsICc8aW5maWxlLm1hZT4nLCAnLW9tYWUnLCAnPG91dGZpbGUubWFlPic=

>  <s_epik_input>  (1) 
W0NIXTEyW0NIXShbQ0gyXTEpW0NIMl1bQ0gyXVtDQEBIXShPMilbQ0BAXTMoW0NIM10pW0NIMl1OM1tDQEhdKFtDSDNdKVtDSDJdW0NIMl1bQ0gyXWM0W2NIXVtjSF1bY0hdYyhbY0hdNClbTkgyXQ==

>  <s_glide_docking_method>  (1) 
confgen

>  <s_i_glide_gridfile>  (1) 
gpcr_drd2_6luq_protein_autoprepared_prepared

>  <s_lp_Force_Field>  (1) 
S-OPLS

>  <s_lp_Variant>  (1) 
DiffSBDD_16_num_sample_100-1

>  <s_m_source_file>  (1) 
generated__ligand_DiffSBDD_2026-05-06_prepared.sdf

>  <GenAI_Model>  (1) 
DiffSBDD

>  <Protein>  (1) 
generic_title2

$$$$
DiffSBDD_27_num_sample_100
     RDKit          3D

  0  0  0  0  0  0  0  0  0  0999 V3000
M  V30 BEGIN CTAB
M  V30 COUNTS 57 57 0 0 1
M  V30 BEGIN ATOM
M  V30 1 C 7.034874 6.625946 -19.837060 0 CFG=2
M  V30 2 C 7.625950 5.324179 -13.334795 0
M  V30 3 N 7.034846 5.218523 -20.239169 0
M  V30 4 C 11.603001 7.991664 -8.167231 0
M  V30 5 C 5.603648 8.195506 -20.892033 0
M  V30 6 C 6.125443 5.904952 -15.283599 0
M  V30 7 N 9.434826 4.110556 -12.249105 0 CHG=1
M  V30 8 C 9.805657 6.536724 -10.310512 0
M  V30 9 C 10.171721 7.466726 -7.951261 0
M  V30 10 C 9.430355 8.397447 -6.976000 0
M  V30 11 C 8.885820 5.458144 -12.498943 0 CFG=2
M  V30 12 C 8.586944 6.235408 -11.202489 0
M  V30 13 C 5.813905 6.991027 -18.913772 0
M  V30 14 C 7.497737 5.193830 -17.211506 0
M  V30 15 C 6.859543 7.541230 -21.114760 0
M  V30 16 O 7.605283 7.635119 -22.086291 0
M  V30 17 C 5.528507 6.741024 -17.599458 0
M  V30 18 N 9.434853 7.490895 -9.242176 0 CHG=1
M  V30 19 N 6.362410 5.981485 -16.734709 0
M  V30 20 C 5.069969 7.897366 -19.739716 0
M  V30 21 C 4.254726 7.274972 -16.942807 0
M  V30 22 C 10.204576 6.059135 -7.321222 0
M  V30 23 C 7.383505 6.039578 -14.445042 0
M  V30 24 H 7.973076 6.884785 -19.348472 0
M  V30 25 H 6.894032 4.603670 -12.995434 0
M  V30 26 H 6.198163 4.982284 -20.754547 0
M  V30 27 H 7.810173 5.018805 -20.856611 0
M  V30 28 H 12.160003 7.369693 -8.867485 0
M  V30 29 H 11.602249 9.009216 -8.560298 0
M  V30 30 H 12.162304 8.006505 -7.231328 0
M  V30 31 H 5.168696 8.863634 -21.621249 0
M  V30 32 H 5.491765 6.715103 -14.930597 0
M  V30 33 H 5.611891 4.973992 -15.043515 0
M  V30 34 H 9.643871 3.670082 -13.133920 0
M  V30 35 H 10.296022 4.171409 -11.726835 0
M  V30 36 H 10.154033 5.599731 -9.887924 0
M  V30 37 H 10.626168 6.959030 -10.891632 0
M  V30 38 H 8.461172 7.988461 -6.691132 0
M  V30 39 H 9.992564 8.553154 -6.054360 0
M  V30 40 H 9.238185 9.369258 -7.423460 0
M  V30 41 H 9.628321 6.014157 -13.073335 0
M  V30 42 H 8.130943 7.185067 -11.491536 0
M  V30 43 H 7.830620 5.709192 -10.616947 0
M  V30 44 H 7.163395 4.460346 -17.940169 0
M  V30 45 H 8.290120 5.814661 -17.625052 0
M  V30 46 H 7.949012 4.599791 -16.417066 0
M  V30 47 H 9.505710 8.423430 -9.620044 0
M  V30 48 H 4.126177 8.316634 -19.431960 0
M  V30 49 H 3.459283 7.494536 -17.651405 0
M  V30 50 H 3.821316 6.518978 -16.291801 0
M  V30 51 H 4.458513 8.177779 -16.367732 0
M  V30 52 H 10.863458 5.373643 -7.852832 0
M  V30 53 H 10.575750 6.103511 -6.295772 0
M  V30 54 H 9.208912 5.613814 -7.285602 0
M  V30 55 H 8.108861 6.762144 -14.782655 0
M  V30 56 H 8.430579 7.369561 -9.069532 0
M  V30 57 H 8.772331 3.537205 -11.745215 0
M  V30 END ATOM
M  V30 BEGIN BOND
M  V30 1 1 3 1
M  V30 2 1 9 4
M  V30 3 1 10 9
M  V30 4 1 11 2
M  V30 5 1 11 7
M  V30 6 1 12 8
M  V30 7 1 12 11
M  V30 8 1 13 1
M  V30 9 1 15 1
M  V30 10 1 15 5
M  V30 11 2 16 15
M  V30 12 2 17 13
M  V30 13 1 18 8
M  V30 14 1 18 9
M  V30 15 1 19 6
M  V30 16 1 19 14
M  V30 17 1 19 17
M  V30 18 2 20 5
M  V30 19 1 20 13
M  V30 20 1 21 17
M  V30 21 1 22 9
M  V30 22 2 23 2
M  V30 23 1 23 6
M  V30 24 1 1 24 CFG=1
M  V30 25 1 25 2
M  V30 26 1 26 3
M  V30 27 1 27 3
M  V30 28 1 28 4
M  V30 29 1 29 4
M  V30 30 1 30 4
M  V30 31 1 31 5
M  V30 32 1 32 6
M  V30 33 1 33 6
M  V30 34 1 34 7
M  V30 35 1 35 7
M  V30 36 1 36 8
M  V30 37 1 37 8
M  V30 38 1 38 10
M  V30 39 1 39 10
M  V30 40 1 40 10
M  V30 41 1 11 41 CFG=3
M  V30 42 1 42 12
M  V30 43 1 43 12
M  V30 44 1 44 14
M  V30 45 1 45 14
M  V30 46 1 46 14
M  V30 47 1 47 18
M  V30 48 1 48 20
M  V30 49 1 49 21
M  V30 50 1 50 21
M  V30 51 1 51 21
M  V30 52 1 52 22
M  V30 53 1 53 22
M  V30 54 1 54 22
M  V30 55 1 55 23
M  V30 56 1 56 18
M  V30 57 1 57 7
M  V30 END BOND
M  V30 END CTAB
M  END
>  <i_epik_Tot_Q>  (1) 
2

>  <i_epik_Tot_abs_Q>  (1) 
2

>  <i_i_glide_confnum>  (1) 
21

>  <i_i_glide_lignum>  (1) 
45

>  <i_i_glide_posenum>  (1) 
126

>  <i_i_glide_rotatable_bonds>  (1) 
8

>  <i_lp_mmshare_version>  (1) 
72125

>  <i_m_source_file_index>  (1) 
28

>  <i_f3d_flags>  (1) 
0

>  <num_sample>  (1) 
100

>  <b_lp_Chiralities_Consistent>  (1) 
1

>  <r_epik_Charging_Adjusted_Penalty>  (1) 
0.47954930221194114

>  <r_epik_Ionization_Penalty>  (1) 
0.082650424812652987

>  <r_epik_Ionization_Penalty_Charging>  (1) 
0.068869463259337155

>  <r_epik_Ionization_Penalty_Neutral>  (1) 
0.013780961553315832

>  <r_epik_State_Penalty>  (1) 
0.41067983895260396

>  <r_glide_ring_energy>  (1) 
0

>  <r_i_docking_score>  (1) 
-5.1594536931732948

>  <r_i_glide_ecoul>  (1) 
-8.4248108038884624

>  <r_i_glide_eff_state_penalty>  (1) 
0.41067983895260396

>  <r_i_glide_einternal>  (1) 
5.3376779773124259

>  <r_i_glide_emodel>  (1) 
-51.17358941475009

>  <r_i_glide_emodel_strain>  (1) 
0.50398229665891137

>  <r_i_glide_energy>  (1) 
-32.610193153151585

>  <r_i_glide_erotb>  (1) 
1.2586724494590871

>  <r_i_glide_esite>  (1) 
-0.10000000000000001

>  <r_i_glide_evdw>  (1) 
-24.185382349263122

>  <r_i_glide_gscore>  (1) 
-5.5701335321258991

>  <r_i_glide_gscore_strain>  (1) 
0

>  <r_i_glide_hbond>  (1) 
-0.19001510245393138

>  <r_i_glide_ligand_efficiency>  (1) 
-0.22432407361623022

>  <r_i_glide_ligand_efficiency_ln>  (1) 
-1.2476026863488394

>  <r_i_glide_ligand_efficiency_sa>  (1) 
-0.63794782574298892

>  <r_i_glide_lipo>  (1) 
-2.037849480376464

>  <r_i_glide_metal>  (1) 
-0

>  <r_i_glide_rewards>  (1) 
-2.0279506607081643

>  <r_lp_Energy>  (1) 
26.442719

>  <r_lp_tautomer_probability>  (1) 
0.5

>  <s_epik_cmdline>  (1) 
J2VwaWtfcHl0aG9uJywgJy1waHQnLCAnMS4wJywgJy1waCcsICc3LjQnLCAnLXRuJywgJzgnLCAnLW1hJywgJzUwMCcsICctaW1hZScsICc8aW5maWxlLm1hZT4nLCAnLW9tYWUnLCAnPG91dGZpbGUubWFlPic=

>  <s_epik_input>  (1) 
Tz1DMVtDSF09W0NIXUMoXFtDQEhdMVtOSDJdKT1DKFtDSDNdKVxOKFtDSDNdKVtDSDJdXFtDSF09W0NIXVxbQ0BIXShbTkgyXSlbQ0gyXVtDSDJdW05IXUMoW0NIM10pKFtDSDNdKVtDSDNd

>  <s_glide_docking_method>  (1) 
confgen

>  <s_i_glide_gridfile>  (1) 
gpcr_drd2_6luq_protein_autoprepared_prepared

>  <s_lp_Force_Field>  (1) 
S-OPLS

>  <s_lp_Variant>  (1) 
DiffSBDD_27_num_sample_100-3

>  <s_m_source_file>  (1) 
generated__ligand_DiffSBDD_2026-05-06_prepared.sdf

>  <GenAI_Model>  (1) 
DiffSBDD

>  <Protein>  (1) 
generic_title2

$$$$
DiffSBDD_83_num_sample_100
     RDKit          3D

  0  0  0  0  0  0  0  0  0  0999 V3000
M  V30 BEGIN CTAB
M  V30 COUNTS 48 52 0 0 1
M  V30 BEGIN ATOM
M  V30 1 C 7.314536 6.756303 -13.073322 0
M  V30 2 C 11.828345 9.230485 -5.198894 0
M  V30 3 C 10.554791 7.183144 -5.652795 0 CFG=1
M  V30 4 C 10.398947 8.019843 -9.297212 0
M  V30 5 C 11.188544 7.403540 -7.002800 0 CFG=2
M  V30 6 N 10.143431 6.969027 -11.767202 0
M  V30 7 C 11.396757 6.914947 -4.427071 0
M  V30 8 C 6.547280 6.123264 -15.305971 0
M  V30 9 C 10.831622 8.584107 -6.131084 0 CFG=2
M  V30 10 C 10.476598 7.171712 -8.280422 0
M  V30 11 C 5.546230 6.287328 -16.450810 0
M  V30 12 C 9.388289 5.698286 -12.036573 0 CFG=1
M  V30 13 C 8.533809 5.066269 -14.345690 0
M  V30 14 C 9.834808 6.023602 -8.650237 0
M  V30 15 C 6.398929 6.895484 -14.134986 0
M  V30 16 C 11.990788 8.273082 -4.004837 0
M  V30 17 C 8.748367 5.139957 -10.715193 0
M  V30 18 C 7.617463 5.203243 -15.407502 0
M  V30 19 C 9.354768 6.169331 -9.872992 0
M  V30 20 C 5.969133 5.789656 -17.847545 0
M  V30 21 O 7.030224 6.569147 -18.353561 0
M  V30 22 C 9.572909 7.519344 -10.544629 0 CFG=1
M  V30 23 C 8.386531 5.842825 -13.177776 0
M  V30 24 H 7.194727 7.351021 -12.179437 0
M  V30 25 H 12.772045 9.370587 -5.726936 0
M  V30 26 H 11.470759 10.210443 -4.880594 0
M  V30 27 H 9.520915 6.843110 -5.625087 0
M  V30 28 H 10.841064 9.004591 -9.290053 0
M  V30 29 H 12.236285 7.144697 -7.091643 0
M  V30 30 H 9.991299 7.617075 -12.525985 0
M  V30 31 H 12.179335 6.203395 -4.688547 0
M  V30 32 H 10.796671 6.463942 -3.636436 0
M  V30 33 H 9.977044 9.189982 -6.424742 0
M  V30 34 H 5.274402 7.341840 -16.520623 0
M  V30 35 H 4.635040 5.769389 -16.156792 0
M  V30 36 H 10.144793 4.983783 -12.365208 0
M  V30 37 H 9.352432 4.367324 -14.428661 0
M  V30 38 H 9.795759 5.115346 -8.067950 0
M  V30 39 H 5.581115 7.596312 -14.051206 0
M  V30 40 H 13.030623 8.184562 -3.688573 0
M  V30 41 H 11.434959 8.669609 -3.154934 0
M  V30 42 H 7.661399 5.227007 -10.688622 0
M  V30 43 H 9.068315 4.130649 -10.460312 0
M  V30 44 H 7.739663 4.604573 -16.295833 0
M  V30 45 H 5.129168 5.893681 -18.535307 0
M  V30 46 H 6.235435 4.733298 -17.855584 0
M  V30 47 H 7.756430 6.512349 -17.750364 0
M  V30 48 H 8.634839 8.052849 -10.691704 0
M  V30 END ATOM
M  V30 BEGIN BOND
M  V30 1 1 5 3
M  V30 2 1 7 3
M  V30 3 1 9 2
M  V30 4 1 9 3
M  V30 5 1 9 5
M  V30 6 2 10 4
M  V30 7 1 10 5
M  V30 8 1 11 8
M  V30 9 1 12 6
M  V30 10 1 14 10
M  V30 11 2 15 1
M  V30 12 1 15 8
M  V30 13 1 16 2
M  V30 14 1 16 7
M  V30 15 1 17 12
M  V30 16 2 18 8
M  V30 17 1 18 13
M  V30 18 2 19 14
M  V30 19 1 19 17
M  V30 20 1 20 11
M  V30 21 1 21 20
M  V30 22 1 22 4
M  V30 23 1 22 6
M  V30 24 1 22 19
M  V30 25 1 23 1
M  V30 26 1 23 12
M  V30 27 2 23 13
M  V30 28 1 24 1
M  V30 29 1 25 2
M  V30 30 1 26 2
M  V30 31 1 3 27 CFG=3
M  V30 32 1 28 4
M  V30 33 1 5 29 CFG=3
M  V30 34 1 30 6
M  V30 35 1 31 7
M  V30 36 1 32 7
M  V30 37 1 9 33 CFG=3
M  V30 38 1 34 11
M  V30 39 1 35 11
M  V30 40 1 12 36 CFG=3
M  V30 41 1 37 13
M  V30 42 1 38 14
M  V30 43 1 39 15
M  V30 44 1 40 16
M  V30 45 1 41 16
M  V30 46 1 42 17
M  V30 47 1 43 17
M  V30 48 1 44 18
M  V30 49 1 45 20
M  V30 50 1 46 20
M  V30 51 1 47 21
M  V30 52 1 22 48 CFG=3
M  V30 END BOND
M  V30 END CTAB
M  END
>  <i_epik_Tot_Q>  (1) 
0

>  <i_epik_Tot_abs_Q>  (1) 
0

>  <i_i_glide_confnum>  (1) 
51

>  <i_i_glide_lignum>  (1) 
172

>  <i_i_glide_posenum>  (1) 
282

>  <i_i_glide_rotatable_bonds>  (1) 
5

>  <i_lp_mmshare_version>  (1) 
72125

>  <i_m_source_file_index>  (1) 
84

>  <i_f3d_flags>  (1) 
0

>  <num_sample>  (1) 
100

>  <b_lp_Chiralities_Consistent>  (1) 
1

>  <r_epik_Charging_Adjusted_Penalty>  (1) 
0.79484472859609101

>  <r_epik_Ionization_Penalty>  (1) 
0.79484480768617471

>  <r_epik_Ionization_Penalty_Charging>  (1) 
0

>  <r_epik_Ionization_Penalty_Neutral>  (1) 
0.79484480768617471

>  <r_epik_State_Penalty>  (1) 
0.79484472859609101

>  <r_glide_ring_energy>  (1) 
1.4396960314071907

>  <r_i_docking_score>  (1) 
-5.1513703786813068

>  <r_i_glide_ecoul>  (1) 
-1.1592441931155402

>  <r_i_glide_eff_state_penalty>  (1) 
0.79484472859609101

>  <r_i_glide_einternal>  (1) 
4.7769603043590037

>  <r_i_glide_emodel>  (1) 
-42.955370929007564

>  <r_i_glide_emodel_strain>  (1) 
1.4228084633101048

>  <r_i_glide_energy>  (1) 
-35.218469771797345

>  <r_i_glide_erotb>  (1) 
0.7823539513187745

>  <r_i_glide_esite>  (1) 
0

>  <r_i_glide_evdw>  (1) 
-34.059225578681804

>  <r_i_glide_gscore>  (1) 
-5.9462151072773981

>  <r_i_glide_gscore_strain>  (1) 
0

>  <r_i_glide_hbond>  (1) 
0

>  <r_i_glide_ligand_efficiency>  (1) 
-0.22397262516005681

>  <r_i_glide_ligand_efficiency_ln>  (1) 
-1.2456480676092334

>  <r_i_glide_ligand_efficiency_sa>  (1) 
-0.63694835308335751

>  <r_i_glide_lipo>  (1) 
-2.6719578512804931

>  <r_i_glide_metal>  (1) 
-0

>  <r_i_glide_rewards>  (1) 
-2.1797632994142582

>  <r_lp_Energy>  (1) 
34.739830999999995

>  <s_epik_cmdline>  (1) 
J2VwaWtfcHl0aG9uJywgJy1waHQnLCAnMS4wJywgJy1waCcsICc3LjQnLCAnLXRuJywgJzgnLCAnLW1hJywgJzUwMCcsICctaW1hZScsICc8aW5maWxlLm1hZT4nLCAnLW9tYWUnLCAnPG91dGZpbGUubWFlPic=

>  <s_epik_input>  (1) 
W09IXVtDSDJdW0NIMl1jMVtjSF1bY0hdYyhbY0hdW2NIXTEpW0NASF0oW0NIMl0yKVtOSF1bQ0BIXShDMjMpW0NIXT1DKFtDSF09MylbQ0BIXTRbQ0BASF0oW0NAQEhdNDUpW0NIMl1bQ0gyXVtDSDJdNQ==

>  <s_glide_docking_method>  (1) 
confgen

>  <s_i_glide_gridfile>  (1) 
gpcr_drd2_6luq_protein_autoprepared_prepared

>  <s_lp_Force_Field>  (1) 
S-OPLS

>  <s_lp_Variant>  (1) 
DiffSBDD_83_num_sample_100-4

>  <s_m_source_file>  (1) 
generated__ligand_DiffSBDD_2026-05-06_prepared.sdf

>  <GenAI_Model>  (1) 
DiffSBDD

>  <Protein>  (1) 
generic_title2

$$$$
DiffSBDD_20_num_sample_100
     RDKit          3D

  0  0  0  0  0  0  0  0  0  0999 V3000
M  V30 BEGIN CTAB
M  V30 COUNTS 52 53 0 0 1
M  V30 BEGIN ATOM
M  V30 1 C 11.736915 9.369300 -4.004587 0
M  V30 2 C 6.670336 5.775258 -13.296381 0 CFG=2
M  V30 3 C 9.963763 7.254177 -6.450399 0
M  V30 4 C 12.129778 9.369302 -2.655644 0
M  V30 5 C 11.585979 8.153051 -4.691664 0
M  V30 6 C 5.032650 3.848905 -13.091634 0
M  V30 7 C 11.168651 8.154873 -6.146935 0
M  V30 8 C 10.610270 6.816823 -8.889492 0
M  V30 9 C 12.382532 8.159343 -1.991761 0
M  V30 10 C 9.033506 5.413753 -12.442084 0
M  V30 11 S 8.874991 5.632987 -10.656362 0
M  V30 12 C 11.834839 6.933692 -4.023394 0
M  V30 13 C 7.040070 7.020649 -14.125998 0
M  V30 14 C 7.389442 3.496232 -12.380313 0
M  V30 15 O 10.025877 5.769303 -13.069064 0
M  V30 16 C 9.534608 7.324101 -7.913788 0
M  V30 17 C 7.838199 4.764401 -13.138734 0 CFG=1
M  V30 18 C 10.179771 6.849245 -10.360580 0 CFG=1
M  V30 19 C 12.234817 6.939008 -2.674347 0
M  V30 20 C 9.788951 8.251757 -10.816394 0
M  V30 21 C 5.458773 5.069308 -13.919016 0
M  V30 22 C 6.177337 2.833479 -13.034682 0
M  V30 23 H 11.545310 10.303434 -4.510905 0
M  V30 24 H 6.370880 6.122828 -12.305309 0
M  V30 25 H 10.169976 6.217696 -6.184112 0
M  V30 26 H 9.114184 7.570167 -5.850520 0
M  V30 27 H 12.234838 10.302486 -2.127396 0
M  V30 28 H 4.130029 3.390492 -13.491668 0
M  V30 29 H 4.774969 4.169324 -12.081598 0
M  V30 30 H 10.943264 9.175201 -6.460483 0
M  V30 31 H 12.034029 7.844575 -6.728236 0
M  V30 32 H 11.518899 7.409877 -8.798774 0
M  V30 33 H 10.878278 5.798325 -8.609974 0
M  V30 34 H 12.689196 8.169305 -0.958363 0
M  V30 35 H 11.723186 5.995679 -4.547193 0
M  V30 36 H 7.434094 6.741532 -15.102930 0
M  V30 37 H 6.168858 7.655136 -14.290470 0
M  V30 38 H 7.790789 7.632946 -13.625747 0
M  V30 39 H 8.213272 2.784565 -12.301248 0
M  V30 40 H 7.094340 3.769307 -11.366119 0
M  V30 41 H 8.634831 6.722243 -8.027373 0
M  V30 42 H 9.246710 8.348181 -8.151204 0
M  V30 43 H 8.171336 4.461504 -14.132535 0
M  V30 44 H 11.034948 6.569332 -10.962878 0
M  V30 45 H 12.427496 6.006337 -2.164216 0
M  V30 46 H 10.532742 8.957917 -10.445549 0
M  V30 47 H 9.750006 8.324358 -11.903149 0
M  V30 48 H 8.819124 8.564199 -10.433226 0
M  V30 49 H 5.709358 4.766273 -14.935734 0
M  V30 50 H 4.634842 5.769277 -13.998705 0
M  V30 51 H 6.430224 2.484955 -14.036773 0
M  V30 52 H 5.878874 1.954227 -12.463140 0
M  V30 END ATOM
M  V30 BEGIN BOND
M  V30 1 1 4 1
M  V30 2 2 5 1
M  V30 3 1 7 3
M  V30 4 1 7 5
M  V30 5 2 9 4
M  V30 6 1 11 10
M  V30 7 1 12 5
M  V30 8 1 13 2
M  V30 9 2 15 10
M  V30 10 1 16 3
M  V30 11 1 16 8
M  V30 12 1 17 2
M  V30 13 1 17 10
M  V30 14 1 17 14
M  V30 15 1 18 8
M  V30 16 1 18 11
M  V30 17 1 19 9
M  V30 18 2 19 12
M  V30 19 1 20 18
M  V30 20 1 21 2
M  V30 21 1 21 6
M  V30 22 1 22 6
M  V30 23 1 22 14
M  V30 24 1 23 1
M  V30 25 1 2 24 CFG=1
M  V30 26 1 25 3
M  V30 27 1 26 3
M  V30 28 1 27 4
M  V30 29 1 28 6
M  V30 30 1 29 6
M  V30 31 1 30 7
M  V30 32 1 31 7
M  V30 33 1 32 8
M  V30 34 1 33 8
M  V30 35 1 34 9
M  V30 36 1 35 12
M  V30 37 1 36 13
M  V30 38 1 37 13
M  V30 39 1 38 13
M  V30 40 1 39 14
M  V30 41 1 40 14
M  V30 42 1 41 16
M  V30 43 1 42 16
M  V30 44 1 17 43 CFG=3
M  V30 45 1 18 44 CFG=3
M  V30 46 1 45 19
M  V30 47 1 46 20
M  V30 48 1 47 20
M  V30 49 1 48 20
M  V30 50 1 49 21
M  V30 51 1 50 21
M  V30 52 1 51 22
M  V30 53 1 52 22
M  V30 END BOND
M  V30 END CTAB
M  END
>  <i_epik_Tot_Q>  (1) 
0

>  <i_epik_Tot_abs_Q>  (1) 
0

>  <i_i_glide_confnum>  (1) 
97

>  <i_i_glide_lignum>  (1) 
32

>  <i_i_glide_posenum>  (1) 
44

>  <i_i_glide_rotatable_bonds>  (1) 
8

>  <i_lp_mmshare_version>  (1) 
72125

>  <i_m_source_file_index>  (1) 
21

>  <i_f3d_flags>  (1) 
0

>  <num_sample>  (1) 
100

>  <b_lp_Chiralities_Consistent>  (1) 
1

>  <r_epik_Charging_Adjusted_Penalty>  (1) 
0

>  <r_epik_Ionization_Penalty>  (1) 
0

>  <r_epik_Ionization_Penalty_Charging>  (1) 
0

>  <r_epik_Ionization_Penalty_Neutral>  (1) 
0

>  <r_epik_State_Penalty>  (1) 
-0

>  <r_glide_ring_energy>  (1) 
0

>  <r_i_docking_score>  (1) 
-5.1479190220285131

>  <r_i_glide_ecoul>  (1) 
0.26624793450490108

>  <r_i_glide_eff_state_penalty>  (1) 
-0

>  <r_i_glide_einternal>  (1) 
4.2467449268488959

>  <r_i_glide_emodel>  (1) 
-38.145754024433437

>  <r_i_glide_emodel_strain>  (1) 
0.14221818422544175

>  <r_i_glide_energy>  (1) 
-29.87359252252336

>  <r_i_glide_erotb>  (1) 
1.2864650569138796

>  <r_i_glide_esite>  (1) 
0

>  <r_i_glide_evdw>  (1) 
-30.13984045702826

>  <r_i_glide_gscore>  (1) 
-5.1479190220285131

>  <r_i_glide_gscore_strain>  (1) 
0

>  <r_i_glide_hbond>  (1) 
0

>  <r_i_glide_ligand_efficiency>  (1) 
-0.23399631918311423

>  <r_i_glide_ligand_efficiency_ln>  (1) 
-1.2583391838925095

>  <r_i_glide_ligand_efficiency_sa>  (1) 
-0.65566688957967778

>  <r_i_glide_lipo>  (1) 
-2.7449598174297929

>  <r_i_glide_metal>  (1) 
-0

>  <r_i_glide_rewards>  (1) 
-2.2223694288369211

>  <r_lp_Energy>  (1) 
15.270403

>  <r_lp_tautomer_probability>  (1) 
1

>  <s_epik_cmdline>  (1) 
J2VwaWtfcHl0aG9uJywgJy1waHQnLCAnMS4wJywgJy1waCcsICc3LjQnLCAnLXRuJywgJzgnLCAnLW1hJywgJzUwMCcsICctaW1hZScsICc8aW5maWxlLm1hZT4nLCAnLW9tYWUnLCAnPG91dGZpbGUubWFlPic=

>  <s_epik_input>  (1) 
W2NIXTFbY0hdW2NIXVtjSF1bY0hdYzFbQ0gyXVtDSDJdW0NIMl1bQ0gyXVtDQEhdKFtDSDNdKVNDKD1PKVtDQEhdKFtDQEhdMltDSDNdKVtDSDJdW0NIMl1bQ0gyXVtDSDJdMg==

>  <s_glide_docking_method>  (1) 
confgen

>  <s_i_glide_gridfile>  (1) 
gpcr_drd2_6luq_protein_autoprepared_prepared

>  <s_lp_Force_Field>  (1) 
S-OPLS

>  <s_lp_Variant>  (1) 
DiffSBDD_20_num_sample_100-1

>  <s_m_source_file>  (1) 
generated__ligand_DiffSBDD_2026-05-06_prepared.sdf

>  <GenAI_Model>  (1) 
DiffSBDD

>  <Protein>  (1) 
generic_title2

$$$$
DiffSBDD_11_num_sample_100
     RDKit          3D

  0  0  0  0  0  0  0  0  0  0999 V3000
M  V30 BEGIN CTAB
M  V30 COUNTS 56 58 0 0 1
M  V30 BEGIN ATOM
M  V30 1 C 8.287470 3.874059 -14.741423 0 CFG=1
M  V30 2 C 11.054222 6.807485 -6.399470 0 CFG=2
M  V30 3 N 7.832688 5.323494 -16.715269 0
M  V30 4 C 9.912869 7.634364 -9.024368 0 CFG=1
M  V30 5 O 7.316100 4.521153 -18.767739 0
M  V30 6 C 6.805872 3.972876 -14.345470 0
M  V30 7 S 11.507829 8.374906 -8.660919 0
M  V30 8 O 11.834958 7.515533 -2.707298 0
M  V30 9 O 9.830646 6.387563 -7.010762 0
M  V30 10 C 9.658148 7.730926 -10.506089 0
M  V30 11 C 9.152775 4.319694 -12.374526 0
M  V30 12 C 12.057263 9.119300 -6.138860 0
M  V30 13 C 10.796827 6.850606 -4.877929 0
M  V30 14 C 9.834913 6.560481 -11.452492 0
M  V30 15 C 10.800637 6.856080 -12.593593 0
M  V30 16 C 7.285658 5.427618 -17.936985 0
M  V30 17 C 11.571373 8.150250 -6.931209 0
M  V30 18 C 8.500804 4.110661 -16.250848 0
M  V30 19 C 9.134383 5.376564 -11.305951 0
M  V30 20 C 6.601926 6.747505 -18.266796 0
M  V30 21 Cl 11.034899 10.169297 -3.930788 0
M  V30 22 C 9.823414 6.248388 -8.431908 0 CFG=1
M  V30 23 C 9.226590 4.735785 -13.857978 0
M  V30 24 C 12.167037 9.008166 -4.635686 0 CFG=1
M  V30 25 C 11.928007 7.567322 -4.117940 0 CFG=1
M  V30 26 O 9.034939 3.128492 -12.109860 0
M  V30 27 C 8.599391 5.462139 -8.856707 0
M  V30 28 C 8.320324 5.060181 -10.120633 0
M  V30 29 H 8.556433 2.831213 -14.577840 0
M  V30 30 H 11.822273 6.059576 -6.604427 0
M  V30 31 H 7.772522 6.103998 -16.078959 0
M  V30 32 H 9.172285 8.263420 -8.525967 0
M  V30 33 H 6.419186 4.989101 -14.426886 0
M  V30 34 H 6.623970 3.624661 -13.328849 0
M  V30 35 H 6.234927 3.330589 -15.008050 0
M  V30 36 H 12.566731 7.981354 -2.331849 0
M  V30 37 H 8.634824 8.052084 -10.684921 0
M  V30 38 H 10.226525 8.569222 -10.900731 0
M  V30 39 H 12.402591 10.042481 -6.578052 0
M  V30 40 H 9.857462 7.366831 -4.723641 0
M  V30 41 H 10.659920 5.839573 -4.493077 0
M  V30 42 H 11.748052 7.098251 -12.111795 0
M  V30 43 H 10.519981 7.769296 -13.091609 0
M  V30 44 H 11.089805 6.105532 -13.304263 0
M  V30 45 H 9.563895 4.169211 -16.489732 0
M  V30 46 H 8.117307 3.237648 -16.783249 0
M  V30 47 H 6.489350 7.368827 -17.378108 0
M  V30 48 H 5.609746 6.565195 -18.679870 0
M  V30 49 H 7.183473 7.294141 -19.008958 0
M  V30 50 H 10.682777 5.650204 -8.717050 0
M  V30 51 H 10.234831 4.573642 -14.229475 0
M  V30 52 H 8.966080 5.785170 -13.979071 0
M  V30 53 H 13.164193 9.338247 -4.341555 0
M  V30 54 H 12.805279 6.969340 -4.291590 0
M  V30 55 H 7.933958 5.164845 -8.059516 0
M  V30 56 H 7.448975 4.436480 -10.262402 0
M  V30 END ATOM
M  V30 BEGIN BOND
M  V30 1 1 6 1
M  V30 2 1 7 4
M  V30 3 1 9 2
M  V30 4 1 10 4
M  V30 5 1 13 2
M  V30 6 1 14 10
M  V30 7 1 15 14
M  V30 8 1 16 3
M  V30 9 2 16 5
M  V30 10 1 17 2
M  V30 11 1 17 7
M  V30 12 2 17 12
M  V30 13 1 18 1
M  V30 14 1 18 3
M  V30 15 1 19 11
M  V30 16 2 19 14
M  V30 17 1 20 16
M  V30 18 1 22 4
M  V30 19 1 22 9
M  V30 20 1 23 1
M  V30 21 1 23 11
M  V30 22 1 24 12
M  V30 23 1 24 21
M  V30 24 1 25 8
M  V30 25 1 25 13
M  V30 26 1 25 24
M  V30 27 2 26 11
M  V30 28 1 27 22
M  V30 29 1 28 19
M  V30 30 2 28 27
M  V30 31 1 1 29 CFG=3
M  V30 32 1 2 30 CFG=1
M  V30 33 1 31 3
M  V30 34 1 4 32 CFG=1
M  V30 35 1 33 6
M  V30 36 1 34 6
M  V30 37 1 35 6
M  V30 38 1 36 8
M  V30 39 1 37 10
M  V30 40 1 38 10
M  V30 41 1 39 12
M  V30 42 1 40 13
M  V30 43 1 41 13
M  V30 44 1 42 15
M  V30 45 1 43 15
M  V30 46 1 44 15
M  V30 47 1 45 18
M  V30 48 1 46 18
M  V30 49 1 47 20
M  V30 50 1 48 20
M  V30 51 1 49 20
M  V30 52 1 22 50 CFG=1
M  V30 53 1 51 23
M  V30 54 1 52 23
M  V30 55 1 24 53 CFG=3
M  V30 56 1 25 54 CFG=1
M  V30 57 1 55 27
M  V30 58 1 56 28
M  V30 END BOND
M  V30 END CTAB
M  END
>  <i_epik_Tot_Q>  (1) 
0

>  <i_epik_Tot_abs_Q>  (1) 
0

>  <i_i_glide_confnum>  (1) 
223

>  <i_i_glide_lignum>  (1) 
19

>  <i_i_glide_posenum>  (1) 
213

>  <i_i_glide_rotatable_bonds>  (1) 
7

>  <i_lp_mmshare_version>  (1) 
72125

>  <i_m_source_file_index>  (1) 
12

>  <i_f3d_flags>  (1) 
0

>  <num_sample>  (1) 
100

>  <b_lp_Chiralities_Consistent>  (1) 
1

>  <r_epik_Charging_Adjusted_Penalty>  (1) 
0

>  <r_epik_Ionization_Penalty>  (1) 
0.000136015572717869

>  <r_epik_Ionization_Penalty_Charging>  (1) 
0

>  <r_epik_Ionization_Penalty_Neutral>  (1) 
0.000136015572717869

>  <r_epik_State_Penalty>  (1) 
-0

>  <r_glide_ring_energy>  (1) 
0

>  <r_i_docking_score>  (1) 
-5.1474311696718118

>  <r_i_glide_ecoul>  (1) 
0.32235493523463676

>  <r_i_glide_eff_state_penalty>  (1) 
-0

>  <r_i_glide_einternal>  (1) 
23.05385468835421

>  <r_i_glide_emodel>  (1) 
-16.907284152407023

>  <r_i_glide_emodel_strain>  (1) 
3.6282134232390604

>  <r_i_glide_energy>  (1) 
-26.10851232500768

>  <r_i_glide_erotb>  (1) 
0.5467392007768872

>  <r_i_glide_esite>  (1) 
0

>  <r_i_glide_evdw>  (1) 
-26.430867260242316

>  <r_i_glide_gscore>  (1) 
-5.1474311696718118

>  <r_i_glide_gscore_strain>  (1) 
0

>  <r_i_glide_hbond>  (1) 
0

>  <r_i_glide_ligand_efficiency>  (1) 
-0.18383682748827898

>  <r_i_glide_ligand_efficiency_ln>  (1) 
-1.1881782491066282

>  <r_i_glide_ligand_efficiency_sa>  (1) 
-0.55823688297551677

>  <r_i_glide_lipo>  (1) 
-2.5206599891086019

>  <r_i_glide_metal>  (1) 
-0

>  <r_i_glide_rewards>  (1) 
-1.9003202586131764

>  <r_lp_Energy>  (1) 
20.078344999999999

>  <r_lp_tautomer_probability>  (1) 
1

>  <s_epik_cmdline>  (1) 
J2VwaWtfcHl0aG9uJywgJy1waHQnLCAnMS4wJywgJy1waCcsICc3LjQnLCAnLXRuJywgJzgnLCAnLW1hJywgJzUwMCcsICctaW1hZScsICc8aW5maWxlLm1hZT4nLCAnLW9tYWUnLCAnPG91dGZpbGUubWFlPic=

>  <s_epik_input>  (1) 
Tz1DKFtDSDNdKVtOSF1bQ0gyXVtDQEhdKFtDSDNdKVtDSDJdQyg9TylDKD1DKFtDSDJdMSlbQ0gzXSlbQ0hdPVtDSF1bQ0BIXShPMilbQ0BIXTFTQyhbQ0BASF0yMyk9W0NIXVtDQEBIXShDbClbQ0BASF0oW09IXSlbQ0gyXTM=

>  <s_glide_docking_method>  (1) 
confgen

>  <s_i_glide_gridfile>  (1) 
gpcr_drd2_6luq_protein_autoprepared_prepared

>  <s_lp_Force_Field>  (1) 
S-OPLS

>  <s_lp_Variant>  (1) 
DiffSBDD_11_num_sample_100-2

>  <s_m_source_file>  (1) 
generated__ligand_DiffSBDD_2026-05-06_prepared.sdf

>  <GenAI_Model>  (1) 
DiffSBDD

>  <Protein>  (1) 
generic_title2

$$$$
DiffSBDD_73_num_sample_100
     RDKit          3D

  0  0  0  0  0  0  0  0  0  0999 V3000
M  V30 BEGIN CTAB
M  V30 COUNTS 42 44 0 0 1
M  V30 BEGIN ATOM
M  V30 1 C 7.624077 6.252202 -12.157533 0 CFG=1
M  V30 2 C 11.437747 7.920781 -9.097080 0
M  V30 3 O 8.234836 6.958402 -13.074322 0 CHG=-1
M  V30 4 C 12.272735 8.814247 -7.125105 0
M  V30 5 C 7.562517 4.364679 -13.774145 0
M  V30 6 C 9.317873 4.292840 -11.989815 0
M  V30 7 N 6.777682 5.345757 -12.961084 0 CFG=1 CHG=1
M  V30 8 C 9.573827 6.286483 -10.472601 0
M  V30 9 C 11.376643 8.093153 -6.326114 0
M  V30 10 C 10.455700 7.180133 -8.378010 0
M  V30 11 N 12.314999 8.719797 -8.462647 0
M  V30 12 C 8.389226 3.451125 -12.872399 0
M  V30 13 C 4.699790 4.039704 -13.091663 0
M  V30 14 C 11.478268 7.796232 -10.493651 0
M  V30 15 C 5.673355 4.746897 -12.170242 0
M  V30 16 C 11.434830 8.191516 -4.857709 0
M  V30 17 C 10.433070 7.264285 -6.968978 0
M  V30 18 C 10.555930 6.997752 -11.177506 0
M  V30 19 C 9.526321 6.368009 -9.064410 0
M  V30 20 C 8.579031 5.421921 -11.233539 0 CFG=1
M  V30 21 N 12.207383 8.967913 -4.224585 0
M  V30 22 H 6.955633 6.792192 -11.491589 0
M  V30 23 H 13.011653 9.459956 -6.673299 0
M  V30 24 H 8.231394 4.892582 -14.455150 0
M  V30 25 H 6.926828 3.778739 -14.434026 0
M  V30 26 H 10.086764 4.721495 -12.632063 0
M  V30 27 H 9.834839 3.654197 -11.277572 0
M  V30 28 H 8.979077 2.768950 -13.477301 0
M  V30 29 H 7.732381 2.812694 -12.291653 0
M  V30 30 H 3.762423 3.769314 -12.619829 0
M  V30 31 H 4.436136 4.718281 -13.891647 0
M  V30 32 H 5.109922 3.114602 -13.491671 0
M  V30 33 H 12.228202 8.334837 -11.047658 0
M  V30 34 H 6.038263 4.061394 -11.405980 0
M  V30 35 H 5.131284 5.533859 -11.644208 0
M  V30 36 H 10.758038 7.535418 -4.307802 0
M  V30 37 H 9.711874 6.698445 -6.394409 0
M  V30 38 H 10.603022 6.931042 -12.254531 0
M  V30 39 H 8.777928 5.816483 -8.514708 0
M  V30 40 H 7.954052 4.935278 -10.483764 0
M  V30 41 H 12.110708 8.894986 -3.221291 0
M  V30 42 H 6.357357 5.981030 -13.623088 0
M  V30 END ATOM
M  V30 BEGIN BOND
M  V30 1 1 3 1
M  V30 2 1 7 1
M  V30 3 1 7 5
M  V30 4 1 9 4
M  V30 5 1 10 2
M  V30 6 1 11 2
M  V30 7 2 11 4
M  V30 8 1 12 5
M  V30 9 1 12 6
M  V30 10 2 14 2
M  V30 11 1 15 7
M  V30 12 1 15 13
M  V30 13 1 16 9
M  V30 14 2 17 9
M  V30 15 1 17 10
M  V30 16 2 18 8
M  V30 17 1 18 14
M  V30 18 1 19 8
M  V30 19 2 19 10
M  V30 20 1 20 1
M  V30 21 1 20 6
M  V30 22 1 20 8
M  V30 23 2 21 16
M  V30 24 1 1 22 CFG=1
M  V30 25 1 23 4
M  V30 26 1 24 5
M  V30 27 1 25 5
M  V30 28 1 26 6
M  V30 29 1 27 6
M  V30 30 1 28 12
M  V30 31 1 29 12
M  V30 32 1 30 13
M  V30 33 1 31 13
M  V30 34 1 32 13
M  V30 35 1 33 14
M  V30 36 1 34 15
M  V30 37 1 35 15
M  V30 38 1 36 16
M  V30 39 1 37 17
M  V30 40 1 38 18
M  V30 41 1 39 19
M  V30 42 1 20 40 CFG=1
M  V30 43 1 41 21
M  V30 44 1 7 42 CFG=3
M  V30 END BOND
M  V30 END CTAB
M  END
>  <i_epik_Tot_Q>  (1) 
0

>  <i_epik_Tot_abs_Q>  (1) 
2

>  <i_i_glide_confnum>  (1) 
10

>  <i_i_glide_lignum>  (1) 
146

>  <i_i_glide_posenum>  (1) 
328

>  <i_i_glide_rotatable_bonds>  (1) 
3

>  <i_lp_mmshare_version>  (1) 
72125

>  <i_m_source_file_index>  (1) 
74

>  <i_f3d_flags>  (1) 
0

>  <num_sample>  (1) 
100

>  <b_lp_Chiralities_Consistent>  (1) 
1

>  <r_epik_Charging_Adjusted_Penalty>  (1) 
0.16727262916870361

>  <r_epik_Ionization_Penalty>  (1) 
0.055388618387316971

>  <r_epik_Ionization_Penalty_Charging>  (1) 
0.05537307808352282

>  <r_epik_Ionization_Penalty_Neutral>  (1) 
1.5540303794148587e-05

>  <r_epik_State_Penalty>  (1) 
0.11189955108518078

>  <r_glide_ring_energy>  (1) 
2.2761646496087313

>  <r_i_docking_score>  (1) 
-5.1467767387022212

>  <r_i_glide_ecoul>  (1) 
-1.5474057741231593

>  <r_i_glide_eff_state_penalty>  (1) 
0.11189955108518078

>  <r_i_glide_einternal>  (1) 
4.4145044497495309

>  <r_i_glide_emodel>  (1) 
-29.33302394166115

>  <r_i_glide_emodel_strain>  (1) 
0.019612941627954683

>  <r_i_glide_energy>  (1) 
-20.51793057955593

>  <r_i_glide_erotb>  (1) 
0.22551580141899327

>  <r_i_glide_esite>  (1) 
-0.055095005302284721

>  <r_i_glide_evdw>  (1) 
-18.97052480543277

>  <r_i_glide_gscore>  (1) 
-5.2586762897874015

>  <r_i_glide_gscore_strain>  (1) 
0

>  <r_i_glide_hbond>  (1) 
0

>  <r_i_glide_ligand_efficiency>  (1) 
-0.24508460660486767

>  <r_i_glide_ligand_efficiency_ln>  (1) 
-1.2725301486024725

>  <r_i_glide_ligand_efficiency_sa>  (1) 
-0.67616984642102562

>  <r_i_glide_lipo>  (1) 
-1.64027250956624

>  <r_i_glide_metal>  (1) 
-0

>  <r_i_glide_rewards>  (1) 
-2.6081874699477572

>  <r_lp_Energy>  (1) 
46.855032999999999

>  <s_epik_Chemistry_Notes>  (1) 
This compound has an imine and may undergo hydrolysis. This compound contains an acetal/aminal-like group ( X-CH(R)-Y where X, Y are N, S, or O) that may be acid/base labile, releasing an aldehyde.

>  <s_epik_cmdline>  (1) 
J2VwaWtfcHl0aG9uJywgJy1waHQnLCAnMS4wJywgJy1waCcsICc3LjQnLCAnLXRuJywgJzgnLCAnLW1hJywgJzUwMCcsICctaW1hZScsICc8aW5maWxlLm1hZT4nLCAnLW9tYWUnLCAnPG91dGZpbGUubWFlPic=

>  <s_epik_input>  (1) 
W09IXVtDQEhdMU4oW0NIMl1bQ0gzXSlbQ0gyXVtDSDJdW0NIMl1bQ0BIXTFjKFtjSF1bY0hdMilbY0hdYyhjMjMpW2NIXWMoW2NIXW4zKS9bQ0hdPU4vW0hd

>  <s_glide_docking_method>  (1) 
confgen

>  <s_i_glide_gridfile>  (1) 
gpcr_drd2_6luq_protein_autoprepared_prepared

>  <s_lp_Force_Field>  (1) 
S-OPLS

>  <s_lp_Variant>  (1) 
DiffSBDD_73_num_sample_100-1

>  <s_m_source_file>  (1) 
generated__ligand_DiffSBDD_2026-05-06_prepared.sdf

>  <GenAI_Model>  (1) 
DiffSBDD

>  <Protein>  (1) 
generic_title2

$$$$
DiffSBDD_9_num_sample_100
     RDKit          3D

  0  0  0  0  0  0  0  0  0  0999 V3000
M  V30 BEGIN CTAB
M  V30 COUNTS 39 39 0 0 1
M  V30 BEGIN ATOM
M  V30 1 C 10.012600 7.374348 -9.959418 0
M  V30 2 O 8.663480 5.769576 -7.383739 0
M  V30 3 O 9.034493 8.294075 -6.989260 0
M  V30 4 C 7.543518 2.836805 -13.552590 0
M  V30 5 C 12.874044 8.287503 -9.299619 0
M  V30 6 C 12.250502 6.575716 -2.596155 0
M  V30 7 C 11.109795 6.568759 -4.753734 0
M  V30 8 S 9.547634 6.935174 -7.213230 0
M  V30 9 C 7.452777 3.054991 -14.940276 0
M  V30 10 C 11.804289 8.080076 -8.241972 0
M  V30 11 C 10.492582 6.621874 -5.805165 0
M  V30 12 C 8.262307 7.040789 -11.762245 0
M  V30 13 C 7.382883 3.914241 -12.656919 0
M  V30 14 C 6.946607 6.366899 -12.184556 0
M  V30 15 C 7.130601 5.209651 -13.150226 0
M  V30 16 C 8.972435 6.400186 -10.543110 0
M  V30 17 F 7.783625 1.591863 -13.080390 0
M  V30 18 C 11.689054 6.568906 -3.679618 0
M  V30 19 C 7.204987 4.350357 -15.435835 0
M  V30 20 F 6.802612 6.671636 -15.023792 0
M  V30 21 C 7.043598 5.427659 -14.543658 0
M  V30 22 O 12.563288 8.968086 -10.291664 0
M  V30 23 O 13.985416 7.769301 -9.091773 0 CHG=-1
M  V30 24 C 10.734223 7.022042 -8.623539 0 CFG=2
M  V30 25 H 9.553048 8.355967 -9.832747 0
M  V30 26 H 10.743472 7.480623 -10.757504 0
M  V30 27 H 12.745271 6.566620 -1.652131 0
M  V30 28 H 7.574190 2.228086 -15.624749 0
M  V30 29 H 11.332254 9.045042 -8.056388 0
M  V30 30 H 12.318247 7.804535 -7.323736 0
M  V30 31 H 7.995422 8.063161 -11.491660 0
M  V30 32 H 8.940714 7.143479 -12.609259 0
M  V30 33 H 7.451975 3.749433 -11.592100 0
M  V30 34 H 6.384263 6.042236 -11.306942 0
M  V30 35 H 6.314416 7.111384 -12.670266 0
M  V30 36 H 9.443078 5.458837 -10.826621 0
M  V30 37 H 8.230912 6.150211 -9.789423 0
M  V30 38 H 7.135202 4.517005 -16.500719 0
M  V30 39 H 11.178087 6.038579 -8.693716 0
M  V30 END ATOM
M  V30 BEGIN BOND
M  V30 1 2 8 2
M  V30 2 2 8 3
M  V30 3 1 9 4
M  V30 4 1 10 5
M  V30 5 3 11 7
M  V30 6 1 11 8
M  V30 7 2 13 4
M  V30 8 1 14 12
M  V30 9 1 15 13
M  V30 10 1 15 14
M  V30 11 1 16 1
M  V30 12 1 16 12
M  V30 13 1 17 4
M  V30 14 3 18 6
M  V30 15 1 18 7
M  V30 16 2 19 9
M  V30 17 2 21 15
M  V30 18 1 21 19
M  V30 19 1 21 20
M  V30 20 2 22 5
M  V30 21 1 23 5
M  V30 22 1 24 1
M  V30 23 1 24 8
M  V30 24 1 24 10
M  V30 25 1 25 1
M  V30 26 1 26 1
M  V30 27 1 27 6
M  V30 28 1 28 9
M  V30 29 1 29 10
M  V30 30 1 30 10
M  V30 31 1 31 12
M  V30 32 1 32 12
M  V30 33 1 33 13
M  V30 34 1 34 14
M  V30 35 1 35 14
M  V30 36 1 36 16
M  V30 37 1 37 16
M  V30 38 1 38 19
M  V30 39 1 24 39 CFG=3
M  V30 END BOND
M  V30 END CTAB
M  END
>  <i_epik_Tot_Q>  (1) 
-1

>  <i_epik_Tot_abs_Q>  (1) 
1

>  <i_i_glide_confnum>  (1) 
376

>  <i_i_glide_lignum>  (1) 
15

>  <i_i_glide_posenum>  (1) 
53

>  <i_i_glide_rotatable_bonds>  (1) 
10

>  <i_lp_mmshare_version>  (1) 
72125

>  <i_m_source_file_index>  (1) 
10

>  <i_f3d_flags>  (1) 
0

>  <num_sample>  (1) 
100

>  <b_lp_Chiralities_Consistent>  (1) 
1

>  <r_epik_Charging_Adjusted_Penalty>  (1) 
0.0001073779662715613

>  <r_epik_Ionization_Penalty>  (1) 
0.0001073779662715613

>  <r_epik_Ionization_Penalty_Charging>  (1) 
0.0001073779662715613

>  <r_epik_Ionization_Penalty_Neutral>  (1) 
0

>  <r_epik_State_Penalty>  (1) 
-0

>  <r_glide_ring_energy>  (1) 
0

>  <r_i_docking_score>  (1) 
-5.1466386075014201

>  <r_i_glide_ecoul>  (1) 
-0.042145385288225867

>  <r_i_glide_eff_state_penalty>  (1) 
-0

>  <r_i_glide_einternal>  (1) 
5.865377240701001

>  <r_i_glide_emodel>  (1) 
-38.202664413303594

>  <r_i_glide_emodel_strain>  (1) 
1.3110548033699283

>  <r_i_glide_energy>  (1) 
-33.40517609642815

>  <r_i_glide_erotb>  (1) 
1.2234298802473262

>  <r_i_glide_esite>  (1) 
-0.22083411173968637

>  <r_i_glide_evdw>  (1) 
-33.363030711139928

>  <r_i_glide_gscore>  (1) 
-5.1466386075014201

>  <r_i_glide_gscore_strain>  (1) 
0

>  <r_i_glide_hbond>  (1) 
0

>  <r_i_glide_ligand_efficiency>  (1) 
-0.21444327531255916

>  <r_i_glide_ligand_efficiency_ln>  (1) 
-1.2318267826321452

>  <r_i_glide_ligand_efficiency_sa>  (1) 
-0.61856144334970353

>  <r_i_glide_lipo>  (1) 
-1.9490534779942918

>  <r_i_glide_metal>  (1) 
-0

>  <r_i_glide_rewards>  (1) 
-2.5257075546645371

>  <r_lp_Energy>  (1) 
9.3765809999999998

>  <r_lp_tautomer_probability>  (1) 
1

>  <s_epik_cmdline>  (1) 
J2VwaWtfcHl0aG9uJywgJy1waHQnLCAnMS4wJywgJy1waCcsICc3LjQnLCAnLXRuJywgJzgnLCAnLW1hJywgJzUwMCcsICctaW1hZScsICc8aW5maWxlLm1hZT4nLCAnLW9tYWUnLCAnPG91dGZpbGUubWFlPic=

>  <s_epik_input>  (1) 
W0NIXSNDQyNDUyg9TykoPU8pW0NASF0oW0NIMl1DKD1PKVtPSF0pW0NIMl1bQ0gyXVtDSDJdW0NIMl1jKFtjSF0xKWMoRilbY0hdW2NIXWMxRg==

>  <s_glide_docking_method>  (1) 
confgen

>  <s_i_glide_gridfile>  (1) 
gpcr_drd2_6luq_protein_autoprepared_prepared

>  <s_lp_Force_Field>  (1) 
S-OPLS

>  <s_lp_Variant>  (1) 
DiffSBDD_9_num_sample_100-1

>  <s_m_source_file>  (1) 
generated__ligand_DiffSBDD_2026-05-06_prepared.sdf

>  <GenAI_Model>  (1) 
DiffSBDD

>  <Protein>  (1) 
generic_title2

$$$$
DiffSBDD_57_num_sample_100
     RDKit          3D

  0  0  0  0  0  0  0  0  0  0999 V3000
M  V30 BEGIN CTAB
M  V30 COUNTS 57 57 0 0 1
M  V30 BEGIN ATOM
M  V30 1 O 8.634140 2.055324 -13.091663 0 CHG=-1
M  V30 2 C 10.770705 6.632254 -7.924974 0 CFG=2
M  V30 3 O 5.740995 4.465971 -11.305816 0
M  V30 4 C 5.660266 7.369417 -11.943396 0
M  V30 5 C 10.861350 6.831697 -5.351349 0
M  V30 6 O 7.435374 2.699184 -15.256380 0
M  V30 7 C 5.886272 5.338491 -13.567403 0 CFG=2
M  V30 8 C 9.834687 6.300206 -9.080620 0
M  V30 9 C 6.222455 6.833255 -13.267717 0 CFG=2
M  V30 10 C 7.695887 7.256374 -13.509758 0
M  V30 11 C 9.967645 6.797001 -10.322461 0
M  V30 12 C 9.981817 6.747083 -6.611157 0 CFG=1
M  V30 13 C 6.381388 4.269329 -12.552936 0 CFG=2
M  V30 14 C 11.088912 7.746743 -10.691590 0
M  V30 15 P 7.421789 2.043049 -13.931142 0
M  V30 16 O 6.341284 5.080649 -14.882512 0
M  V30 17 C 12.207944 7.831621 -9.656893 0
M  V30 18 C 6.046127 2.815183 -12.943428 0
M  V30 19 C 6.832513 0.280665 -14.117468 0
M  V30 20 C 8.560964 7.628202 -12.291668 0
M  V30 21 C 9.017159 6.425784 -11.445739 0
M  V30 22 N 9.034806 7.867035 -6.691684 0 CHG=1
M  V30 23 C 11.663430 7.860908 -8.227331 0
M  V30 24 F 11.366455 8.056156 -5.186674 0
M  V30 25 H 11.423576 5.769248 -7.821158 0
M  V30 26 H 5.983941 5.315337 -10.966241 0
M  V30 27 H 6.185973 6.962656 -11.091668 0
M  V30 28 H 5.712190 8.454375 -11.880898 0
M  V30 29 H 4.634838 7.086087 -11.803023 0
M  V30 30 H 10.288454 6.586108 -4.455863 0
M  V30 31 H 11.695681 6.130567 -5.400261 0
M  V30 32 H 4.801504 5.247019 -13.620639 0
M  V30 33 H 9.025238 5.617048 -8.865607 0
M  V30 34 H 5.656301 7.371315 -14.030501 0
M  V30 35 H 8.229367 6.513014 -14.100758 0
M  V30 36 H 7.661545 8.140954 -14.145899 0
M  V30 37 H 9.379855 5.842171 -6.510578 0
M  V30 38 H 7.456639 4.357805 -12.411326 0
M  V30 39 H 11.510424 7.431468 -11.646890 0
M  V30 40 H 10.635445 8.722708 -10.806642 0
M  V30 41 H 6.688895 4.185474 -14.957602 0
M  V30 42 H 12.825254 8.710154 -9.848875 0
M  V30 43 H 12.846425 6.969307 -9.801899 0
M  V30 44 H 5.917778 2.199643 -12.053831 0
M  V30 45 H 5.104896 2.771738 -13.490567 0
M  V30 46 H 6.762954 -0.213123 -13.148419 0
M  V30 47 H 5.847664 0.233778 -14.580494 0
M  V30 48 H 7.517076 -0.300602 -14.733670 0
M  V30 49 H 9.440373 8.129791 -12.691559 0
M  V30 50 H 8.073614 8.376010 -11.665681 0
M  V30 51 H 8.157274 5.923294 -11.009864 0
M  V30 52 H 9.516485 5.697098 -12.085498 0
M  V30 53 H 9.534435 8.734647 -6.808451 0
M  V30 54 H 8.411013 7.723372 -7.479860 0
M  V30 55 H 11.102566 8.786191 -8.100270 0
M  V30 56 H 12.493886 7.910202 -7.522710 0
M  V30 57 H 8.471273 7.896969 -5.854690 0
M  V30 END ATOM
M  V30 BEGIN BOND
M  V30 1 1 8 2
M  V30 2 1 9 4
M  V30 3 1 9 7
M  V30 4 1 10 9
M  V30 5 2 11 8
M  V30 6 1 12 2
M  V30 7 1 12 5
M  V30 8 1 13 3
M  V30 9 1 13 7
M  V30 10 1 14 11
M  V30 11 1 15 1
M  V30 12 2 15 6
M  V30 13 1 16 7
M  V30 14 1 17 14
M  V30 15 1 18 13
M  V30 16 1 18 15
M  V30 17 1 19 15
M  V30 18 1 20 10
M  V30 19 1 21 11
M  V30 20 1 21 20
M  V30 21 1 22 12
M  V30 22 1 23 2
M  V30 23 1 23 17
M  V30 24 1 24 5
M  V30 25 1 2 25 CFG=1
M  V30 26 1 26 3
M  V30 27 1 27 4
M  V30 28 1 28 4
M  V30 29 1 29 4
M  V30 30 1 30 5
M  V30 31 1 31 5
M  V30 32 1 7 32 CFG=3
M  V30 33 1 33 8
M  V30 34 1 9 34 CFG=3
M  V30 35 1 35 10
M  V30 36 1 36 10
M  V30 37 1 12 37 CFG=1
M  V30 38 1 13 38 CFG=1
M  V30 39 1 39 14
M  V30 40 1 40 14
M  V30 41 1 41 16
M  V30 42 1 42 17
M  V30 43 1 43 17
M  V30 44 1 44 18
M  V30 45 1 45 18
M  V30 46 1 46 19
M  V30 47 1 47 19
M  V30 48 1 48 19
M  V30 49 1 49 20
M  V30 50 1 50 20
M  V30 51 1 51 21
M  V30 52 1 52 21
M  V30 53 1 53 22
M  V30 54 1 54 22
M  V30 55 1 55 23
M  V30 56 1 56 23
M  V30 57 1 57 22
M  V30 END BOND
M  V30 END CTAB
M  END
>  <i_epik_Tot_Q>  (1) 
0

>  <i_epik_Tot_abs_Q>  (1) 
2

>  <i_i_glide_confnum>  (1) 
276

>  <i_i_glide_lignum>  (1) 
115

>  <i_i_glide_posenum>  (1) 
356

>  <i_i_glide_rotatable_bonds>  (1) 
12

>  <i_lp_mmshare_version>  (1) 
72125

>  <i_m_source_file_index>  (1) 
58

>  <i_f3d_flags>  (1) 
0

>  <num_sample>  (1) 
100

>  <b_lp_Chiralities_Consistent>  (1) 
1

>  <r_epik_Charging_Adjusted_Penalty>  (1) 
0.062298349578367884

>  <r_epik_Ionization_Penalty>  (1) 
0.031162850121694747

>  <r_epik_Ionization_Penalty_Charging>  (1) 
0.031162474360832908

>  <r_epik_Ionization_Penalty_Neutral>  (1) 
3.7576086184060383e-07

>  <r_epik_State_Penalty>  (1) 
0.031135875217534977

>  <r_glide_ring_energy>  (1) 
0

>  <r_i_docking_score>  (1) 
-5.1458503674572622

>  <r_i_glide_ecoul>  (1) 
-1.0970627360473966

>  <r_i_glide_eff_state_penalty>  (1) 
0.031135875217534977

>  <r_i_glide_einternal>  (1) 
9.9407580069280321

>  <r_i_glide_emodel>  (1) 
-33.479372881137806

>  <r_i_glide_emodel_strain>  (1) 
1.2382238039826667

>  <r_i_glide_energy>  (1) 
-28.415885906859913

>  <r_i_glide_erotb>  (1) 
0.80667302554742071

>  <r_i_glide_esite>  (1) 
-0.077105093873670857

>  <r_i_glide_evdw>  (1) 
-27.318823170812514

>  <r_i_glide_gscore>  (1) 
-5.176986242674797

>  <r_i_glide_gscore_strain>  (1) 
0

>  <r_i_glide_hbond>  (1) 
-0.083996261304281603

>  <r_i_glide_ligand_efficiency>  (1) 
-0.21441043197738593

>  <r_i_glide_ligand_efficiency_ln>  (1) 
-1.2316381206195994

>  <r_i_glide_ligand_efficiency_sa>  (1) 
-0.61846670677762139

>  <r_i_glide_lipo>  (1) 
-1.7006073891958327

>  <r_i_glide_metal>  (1) 
-0

>  <r_i_glide_rewards>  (1) 
-2.5914499549006962

>  <r_lp_Energy>  (1) 
9.4265720000000002

>  <s_epik_cmdline>  (1) 
J2VwaWtfcHl0aG9uJywgJy1waHQnLCAnMS4wJywgJy1waCcsICc3LjQnLCAnLXRuJywgJzgnLCAnLW1hJywgJzUwMCcsICctaW1hZScsICc8aW5maWxlLm1hZT4nLCAnLW9tYWUnLCAnPG91dGZpbGUubWFlPic=

>  <s_epik_input>  (1) 
W09IXVtQQF0oPU8pKFtDSDNdKVtDSDJdW0NASF0oW09IXSlbQ0BIXShbT0hdKVtDQEBIXShbQ0gzXSlbQ0gyXVtDSDJdW0NIMl1DKFtDSDJdW0NIMl1bQ0gyXTEpPVtDSF1bQ0BASF0xW0NAQEhdKFtDSDJdRilbTkgyXQ==

>  <s_glide_docking_method>  (1) 
confgen

>  <s_i_glide_gridfile>  (1) 
gpcr_drd2_6luq_protein_autoprepared_prepared

>  <s_lp_Force_Field>  (1) 
S-OPLS

>  <s_lp_Variant>  (1) 
DiffSBDD_57_num_sample_100-1

>  <s_m_source_file>  (1) 
generated__ligand_DiffSBDD_2026-05-06_prepared.sdf

>  <GenAI_Model>  (1) 
DiffSBDD

>  <Protein>  (1) 
generic_title2

$$$$
DiffSBDD_26_num_sample_100
     RDKit          3D

  0  0  0  0  0  0  0  0  0  0999 V3000
M  V30 BEGIN CTAB
M  V30 COUNTS 72 77 0 0 1
M  V30 BEGIN ATOM
M  V30 1 C 4.842485 4.482212 -22.107635 0
M  V30 2 C 11.355604 7.791355 -5.168490 0
M  V30 3 C 8.242828 5.753097 -14.007529 0
M  V30 4 C 11.414847 7.891863 -8.230588 0
M  V30 5 F 10.194718 7.366362 -11.651120 0
M  V30 6 C 6.873570 5.912979 -17.792126 0 CFG=1
M  V30 7 C 6.233597 6.852637 -13.225603 0
M  V30 8 N 12.425762 8.514546 -3.289541 0
M  V30 9 C 7.478868 2.494008 -17.584403 0
M  V30 10 C 8.093784 3.434186 -18.635778 0 CFG=1
M  V30 11 C 7.698801 3.036246 -20.095093 0
M  V30 12 C 10.540397 7.060570 -7.493061 0
M  V30 13 C 11.840262 7.475515 -3.865499 0
M  V30 14 C 9.434833 6.395325 -9.588153 0
M  V30 15 N 11.434844 10.062748 -6.280928 0
M  V30 16 C 11.678706 9.125651 -5.298747 0
M  V30 17 O 12.339775 9.564605 -4.204863 0
M  V30 18 C 9.176690 5.327524 -15.124064 0
M  V30 19 C 6.570271 5.349286 -20.475124 0 CFG=2
M  V30 20 C 11.768686 6.172875 -3.136063 0
M  V30 21 N 10.646649 6.922548 -6.084534 0
M  V30 22 C 6.441635 5.139429 -18.978933 0 CFG=1
M  V30 23 C 5.189519 5.318086 -21.115345 0
M  V30 24 C 6.267654 5.698678 -16.415670 0
M  V30 25 C 11.281948 7.997598 -9.628852 0
M  V30 26 C 6.645870 6.558592 -11.923354 0
M  V30 27 C 5.784452 3.470629 -22.723676 0
M  V30 28 C 7.860213 4.933676 -18.413546 0 CFG=2
M  V30 29 C 8.359910 5.540245 -10.307926 0
M  V30 30 C 10.296262 7.258588 -10.310084 0
M  V30 31 C 9.561708 6.304561 -8.180507 0
M  V30 32 C 7.249108 3.870214 -22.502639 0
M  V30 33 O 6.683508 6.766670 -15.580174 0
M  V30 34 C 7.042162 6.453498 -14.292050 0
M  V30 35 C 7.554784 4.265272 -21.046262 0 CFG=2
M  V30 36 C 7.864678 5.869295 -11.726764 0
M  V30 37 N 8.646821 5.441303 -12.749467 0
M  V30 38 H 3.839016 4.512146 -22.505317 0
M  V30 39 H 11.736202 11.023734 -6.209624 0
M  V30 40 H 12.199648 8.429668 -7.737987 0
M  V30 41 H 7.060440 6.966683 -17.995356 0
M  V30 42 H 5.314550 7.389193 -13.402688 0
M  V30 43 H 6.390151 2.509871 -17.600680 0
M  V30 44 H 7.804875 2.747263 -16.578374 0
M  V30 45 H 7.791806 1.465530 -17.768600 0
M  V30 46 H 9.175865 3.307996 -18.560580 0
M  V30 47 H 8.437011 2.337770 -20.489795 0
M  V30 48 H 6.754317 2.491623 -20.081250 0
M  V30 49 H 10.908016 9.850378 -7.116256 0
M  V30 50 H 9.123750 6.005616 -15.974821 0
M  V30 51 H 8.940114 4.321012 -15.457419 0
M  V30 52 H 10.208354 5.334305 -14.774189 0
M  V30 53 H 6.980510 6.342079 -20.661355 0
M  V30 54 H 11.552045 5.369301 -3.835878 0
M  V30 55 H 10.980877 6.189501 -2.382930 0
M  V30 56 H 10.205447 6.098246 -5.699966 0
M  V30 57 H 5.686362 4.391374 -18.738629 0
M  V30 58 H 4.461937 6.016334 -20.727949 0
M  V30 59 H 5.181465 5.763723 -16.496744 0
M  V30 60 H 6.525785 4.715158 -16.019459 0
M  V30 61 H 11.949770 8.638607 -10.183553 0
M  V30 62 H 6.043705 6.863713 -11.091724 0
M  V30 63 H 5.582217 3.402108 -23.793743 0
M  V30 64 H 5.578775 2.487243 -22.300891 0
M  V30 65 H 8.680350 5.499966 -18.854540 0
M  V30 66 H 8.718786 4.510232 -10.309712 0
M  V30 67 H 7.484335 5.519350 -9.654952 0
M  V30 68 H 8.903649 5.649126 -7.625537 0
M  V30 69 H 7.916220 3.071238 -22.829862 0
M  V30 70 H 7.467513 4.727293 -23.141143 0
M  V30 71 H 8.544837 4.724060 -21.075655 0
M  V30 72 H 12.710699 5.943371 -2.635201 0
M  V30 END ATOM
M  V30 BEGIN BOND
M  V30 1 1 10 9
M  V30 2 1 11 10
M  V30 3 1 12 4
M  V30 4 1 13 2
M  V30 5 2 13 8
M  V30 6 2 16 2
M  V30 7 1 16 15
M  V30 8 1 17 8
M  V30 9 1 17 16
M  V30 10 1 18 3
M  V30 11 1 20 13
M  V30 12 1 21 2
M  V30 13 1 21 12
M  V30 14 1 22 6
M  V30 15 1 22 19
M  V30 16 2 23 1
M  V30 17 1 23 19
M  V30 18 1 24 6
M  V30 19 2 25 4
M  V30 20 2 26 7
M  V30 21 1 27 1
M  V30 22 1 28 6
M  V30 23 1 28 10
M  V30 24 1 28 22
M  V30 25 1 29 14
M  V30 26 1 30 5
M  V30 27 2 30 14
M  V30 28 1 30 25
M  V30 29 2 31 12
M  V30 30 1 31 14
M  V30 31 1 32 27
M  V30 32 1 33 24
M  V30 33 2 34 3
M  V30 34 1 34 7
M  V30 35 1 34 33
M  V30 36 1 35 11
M  V30 37 1 35 19
M  V30 38 1 35 32
M  V30 39 1 36 26
M  V30 40 1 36 29
M  V30 41 1 37 3
M  V30 42 2 37 36
M  V30 43 1 38 1
M  V30 44 1 39 15
M  V30 45 1 40 4
M  V30 46 1 6 41 CFG=3
M  V30 47 1 42 7
M  V30 48 1 43 9
M  V30 49 1 44 9
M  V30 50 1 45 9
M  V30 51 1 10 46 CFG=3
M  V30 52 1 47 11
M  V30 53 1 48 11
M  V30 54 1 49 15
M  V30 55 1 50 18
M  V30 56 1 51 18
M  V30 57 1 52 18
M  V30 58 1 19 53 CFG=1
M  V30 59 1 54 20
M  V30 60 1 55 20
M  V30 61 1 56 21
M  V30 62 1 22 57 CFG=3
M  V30 63 1 58 23
M  V30 64 1 59 24
M  V30 65 1 60 24
M  V30 66 1 61 25
M  V30 67 1 62 26
M  V30 68 1 63 27
M  V30 69 1 64 27
M  V30 70 1 28 65 CFG=3
M  V30 71 1 66 29
M  V30 72 1 67 29
M  V30 73 1 68 31
M  V30 74 1 69 32
M  V30 75 1 70 32
M  V30 76 1 35 71 CFG=3
M  V30 77 1 72 20
M  V30 END BOND
M  V30 END CTAB
M  END
>  <i_epik_Tot_Q>  (1) 
0

>  <i_epik_Tot_abs_Q>  (1) 
0

>  <i_i_glide_confnum>  (1) 
18

>  <i_i_glide_lignum>  (1) 
42

>  <i_i_glide_posenum>  (1) 
106

>  <i_i_glide_rotatable_bonds>  (1) 
7

>  <i_lp_mmshare_version>  (1) 
72125

>  <i_m_source_file_index>  (1) 
27

>  <i_f3d_flags>  (1) 
0

>  <num_sample>  (1) 
100

>  <b_lp_Chiralities_Consistent>  (1) 
1

>  <r_epik_Charging_Adjusted_Penalty>  (1) 
0

>  <r_epik_Ionization_Penalty>  (1) 
0.044548018534552827

>  <r_epik_Ionization_Penalty_Charging>  (1) 
0

>  <r_epik_Ionization_Penalty_Neutral>  (1) 
0.044548018534552827

>  <r_epik_State_Penalty>  (1) 
-0

>  <r_glide_ring_energy>  (1) 
0

>  <r_i_docking_score>  (1) 
-5.1421021353037482

>  <r_i_glide_ecoul>  (1) 
-0.85854945404892491

>  <r_i_glide_eff_state_penalty>  (1) 
-0

>  <r_i_glide_einternal>  (1) 
23.60187998289334

>  <r_i_glide_emodel>  (1) 
-43.764108486670303

>  <r_i_glide_emodel_strain>  (1) 
0.053110912783992603

>  <r_i_glide_energy>  (1) 
-44.892256983478319

>  <r_i_glide_erotb>  (1) 
0.5661782271396133

>  <r_i_glide_esite>  (1) 
-0.017679671294980204

>  <r_i_glide_evdw>  (1) 
-44.033707529429392

>  <r_i_glide_gscore>  (1) 
-5.1421021353037482

>  <r_i_glide_gscore_strain>  (1) 
0

>  <r_i_glide_hbond>  (1) 
0

>  <r_i_glide_ligand_efficiency>  (1) 
-0.13897573338658778

>  <r_i_glide_ligand_efficiency_ln>  (1) 
-1.1152014051698669

>  <r_i_glide_ligand_efficiency_sa>  (1) 
-0.46309797563930993

>  <r_i_glide_lipo>  (1) 
-2.4601328965695726

>  <r_i_glide_metal>  (1) 
-0

>  <r_i_glide_rewards>  (1) 
-0.90000000000000002

>  <r_lp_Energy>  (1) 
68.245464999999996

>  <r_lp_tautomer_probability>  (1) 
1

>  <s_epik_cmdline>  (1) 
J2VwaWtfcHl0aG9uJywgJy1waHQnLCAnMS4wJywgJy1waCcsICc3LjQnLCAnLXRuJywgJzgnLCAnLW1hJywgJzUwMCcsICctaW1hZScsICc8aW5maWxlLm1hZT4nLCAnLW9tYWUnLCAnPG91dGZpbGUubWFlPic=

>  <s_epik_input>  (1) 
W0NIXTE9W0NIXVtDSDJdW0NIMl1bQ0BASF0yW0NIMl1bQ0BIXShbQ0gzXSlbQ0hdKFtDQEBIXTNbQ0BIXTEyKVtDQEBIXTNbQ0gyXU9jKGM0W0NIM10pW2NIXVtjSF1jKG40KVtDSDJdYyhbY0hdNSljKEYpW2NIXVtjSF1jNVtOSF1bQ0BIXTZDKD1bQ0gyXSlbTkhdT0MvNj1OXFtIXQ==

>  <s_glide_docking_method>  (1) 
confgen

>  <s_i_glide_gridfile>  (1) 
gpcr_drd2_6luq_protein_autoprepared_prepared

>  <s_lp_Force_Field>  (1) 
S-OPLS

>  <s_lp_Variant>  (1) 
DiffSBDD_26_num_sample_100-2

>  <s_m_source_file>  (1) 
generated__ligand_DiffSBDD_2026-05-06_prepared.sdf

>  <GenAI_Model>  (1) 
DiffSBDD

>  <Protein>  (1) 
generic_title2

$$$$
DiffSBDD_26_num_sample_100
     RDKit          3D

  0  0  0  0  0  0  0  0  0  0999 V3000
M  V30 BEGIN CTAB
M  V30 COUNTS 72 77 0 0 1
M  V30 BEGIN ATOM
M  V30 1 C 10.234829 8.819812 -5.891662 0
M  V30 2 C 8.608290 -0.567055 -18.925867 0
M  V30 3 C 6.929751 4.848358 -13.249885 0
M  V30 4 C 6.142851 -0.311526 -17.208875 0
M  V30 5 F 4.234920 0.169336 -14.112917 0
M  V30 6 C 9.554323 6.806465 -10.464637 0 CFG=1
M  V30 7 C 9.126557 4.069609 -12.598891 0
M  V30 8 N 9.228315 -1.219112 -21.016491 0
M  V30 9 C 13.049880 8.619527 -10.418788 0
M  V30 10 C 12.103157 7.605383 -9.795334 0 CFG=1
M  V30 11 C 12.183085 7.657611 -8.265528 0
M  V30 12 C 7.415228 0.170406 -16.816399 0
M  V30 13 C 9.339559 -0.260229 -20.108033 0
M  V30 14 C 6.524686 0.657574 -14.592292 0
M  V30 15 N 7.336271 -2.699523 -18.436447 0
M  V30 16 C 8.081320 -1.808572 -19.196971 0
M  V30 17 O 8.414437 -2.207950 -20.449159 0
M  V30 18 C 5.953705 5.971200 -13.543816 0
M  V30 19 C 9.722912 7.372756 -7.892245 0 CFG=2
M  V30 20 C 10.157632 0.960926 -20.412807 0
M  V30 21 N 8.495949 0.202920 -17.720848 0
M  V30 22 C 9.564402 7.811806 -9.341412 0 CFG=1
M  V30 23 C 9.509901 8.569302 -6.995021 0
M  V30 24 C 8.435783 6.990065 -11.491499 0
M  V30 25 C 5.075160 -0.312545 -16.293339 0
M  V30 26 C 8.634807 2.766966 -12.708879 0
M  V30 27 C 11.325161 7.919270 -5.378600 0
M  V30 28 C 10.691266 7.811226 -10.336827 0 CFG=2
M  V30 29 C 6.726630 1.171495 -13.179575 0
M  V30 30 C 5.265765 0.169307 -14.987734 0
M  V30 31 C 7.596681 0.664065 -15.508399 0
M  V30 32 C 11.328017 6.569359 -6.115013 0
M  V30 33 O 8.706044 6.422501 -12.759164 0
M  V30 34 C 8.263891 5.133179 -12.869117 0
M  V30 35 C 11.105407 6.755159 -7.624729 0 CFG=2
M  V30 36 C 7.294990 2.573173 -13.091589 0
M  V30 37 N 6.439671 3.588308 -13.369950 0
M  V30 38 H 10.046493 9.712357 -5.320607 0
M  V30 39 H 7.039993 -3.600849 -18.780988 0
M  V30 40 H 5.978694 -0.662315 -18.213141 0
M  V30 41 H 9.780979 5.773671 -10.208999 0
M  V30 42 H 10.149878 4.250075 -12.304337 0
M  V30 43 H 12.634853 9.622290 -10.287588 0
M  V30 44 H 13.178080 8.449465 -11.486586 0
M  V30 45 H 14.036948 8.569161 -9.957448 0
M  V30 46 H 12.469310 6.638662 -10.083354 0
M  V30 47 H 13.176474 7.369783 -7.923955 0
M  V30 48 H 12.069490 8.693351 -7.944440 0
M  V30 49 H 7.084998 -2.518203 -17.472763 0
M  V30 50 H 6.443947 6.782460 -14.080907 0
M  V30 51 H 5.548796 6.370266 -12.614875 0
M  V30 52 H 5.117215 5.613520 -14.146602 0
M  V30 53 H 8.933481 6.655200 -7.664289 0
M  V30 54 H 10.199732 1.635517 -19.557492 0
M  V30 55 H 9.726975 1.516242 -21.246692 0
M  V30 56 H 9.215977 0.880780 -17.518777 0
M  V30 57 H 8.988885 8.723624 -9.453971 0
M  V30 58 H 8.737874 9.263797 -7.293825 0
M  V30 59 H 7.512683 6.569525 -11.091649 0
M  V30 60 H 8.249785 8.055250 -11.634858 0
M  V30 61 H 4.104921 -0.678626 -16.595679 0
M  V30 62 H 9.272612 1.924119 -12.499646 0
M  V30 63 H 11.206065 7.759577 -4.307557 0
M  V30 64 H 12.234852 8.490728 -5.513546 0
M  V30 65 H 10.634962 8.569277 -11.096279 0
M  V30 66 H 5.793657 1.151243 -12.619913 0
M  V30 67 H 7.388029 0.478214 -12.659916 0
M  V30 68 H 8.561455 1.042523 -15.204988 0
M  V30 69 H 12.234815 6.004908 -5.915746 0
M  V30 70 H 10.513687 5.960748 -5.722450 0
M  V30 71 H 11.121088 5.769427 -8.085317 0
M  V30 72 H 11.180073 0.693082 -20.681292 0
M  V30 END ATOM
M  V30 BEGIN BOND
M  V30 1 1 10 9
M  V30 2 1 11 10
M  V30 3 1 12 4
M  V30 4 1 13 2
M  V30 5 2 13 8
M  V30 6 2 16 2
M  V30 7 1 16 15
M  V30 8 1 17 8
M  V30 9 1 17 16
M  V30 10 1 18 3
M  V30 11 1 20 13
M  V30 12 1 21 2
M  V30 13 1 21 12
M  V30 14 1 22 6
M  V30 15 1 22 19
M  V30 16 2 23 1
M  V30 17 1 23 19
M  V30 18 1 24 6
M  V30 19 2 25 4
M  V30 20 2 26 7
M  V30 21 1 27 1
M  V30 22 1 28 6
M  V30 23 1 28 10
M  V30 24 1 28 22
M  V30 25 1 29 14
M  V30 26 1 30 5
M  V30 27 2 30 14
M  V30 28 1 30 25
M  V30 29 2 31 12
M  V30 30 1 31 14
M  V30 31 1 32 27
M  V30 32 1 33 24
M  V30 33 2 34 3
M  V30 34 1 34 7
M  V30 35 1 34 33
M  V30 36 1 35 11
M  V30 37 1 35 19
M  V30 38 1 35 32
M  V30 39 1 36 26
M  V30 40 1 36 29
M  V30 41 1 37 3
M  V30 42 2 37 36
M  V30 43 1 38 1
M  V30 44 1 39 15
M  V30 45 1 40 4
M  V30 46 1 6 41 CFG=1
M  V30 47 1 42 7
M  V30 48 1 43 9
M  V30 49 1 44 9
M  V30 50 1 45 9
M  V30 51 1 10 46 CFG=3
M  V30 52 1 47 11
M  V30 53 1 48 11
M  V30 54 1 49 15
M  V30 55 1 50 18
M  V30 56 1 51 18
M  V30 57 1 52 18
M  V30 58 1 19 53 CFG=1
M  V30 59 1 54 20
M  V30 60 1 55 20
M  V30 61 1 56 21
M  V30 62 1 22 57 CFG=1
M  V30 63 1 58 23
M  V30 64 1 59 24
M  V30 65 1 60 24
M  V30 66 1 61 25
M  V30 67 1 62 26
M  V30 68 1 63 27
M  V30 69 1 64 27
M  V30 70 1 28 65 CFG=3
M  V30 71 1 66 29
M  V30 72 1 67 29
M  V30 73 1 68 31
M  V30 74 1 69 32
M  V30 75 1 70 32
M  V30 76 1 35 71 CFG=3
M  V30 77 1 72 20
M  V30 END BOND
M  V30 END CTAB
M  END
>  <i_epik_Tot_Q>  (1) 
0

>  <i_epik_Tot_abs_Q>  (1) 
0

>  <i_i_glide_confnum>  (1) 
151

>  <i_i_glide_lignum>  (1) 
41

>  <i_i_glide_posenum>  (1) 
274

>  <i_i_glide_rotatable_bonds>  (1) 
7

>  <i_lp_mmshare_version>  (1) 
72125

>  <i_m_source_file_index>  (1) 
27

>  <i_f3d_flags>  (1) 
0

>  <num_sample>  (1) 
100

>  <b_lp_Chiralities_Consistent>  (1) 
1

>  <r_epik_Charging_Adjusted_Penalty>  (1) 
0

>  <r_epik_Ionization_Penalty>  (1) 
0.044548018534552827

>  <r_epik_Ionization_Penalty_Charging>  (1) 
0

>  <r_epik_Ionization_Penalty_Neutral>  (1) 
0.044548018534552827

>  <r_epik_State_Penalty>  (1) 
-0

>  <r_glide_ring_energy>  (1) 
0

>  <r_i_docking_score>  (1) 
-5.136983396150991

>  <r_i_glide_ecoul>  (1) 
-2.0491934077130427

>  <r_i_glide_eff_state_penalty>  (1) 
-0

>  <r_i_glide_einternal>  (1) 
11.155087915151249

>  <r_i_glide_emodel>  (1) 
-42.560578341469522

>  <r_i_glide_emodel_strain>  (1) 
0.47488844427937238

>  <r_i_glide_energy>  (1) 
-35.809629286012203

>  <r_i_glide_erotb>  (1) 
0.5661782271396133

>  <r_i_glide_esite>  (1) 
-0.070444672830848265

>  <r_i_glide_evdw>  (1) 
-33.760435878299162

>  <r_i_glide_gscore>  (1) 
-5.136983396150991

>  <r_i_glide_gscore_strain>  (1) 
0

>  <r_i_glide_hbond>  (1) 
0

>  <r_i_glide_ligand_efficiency>  (1) 
-0.13883738908516191

>  <r_i_glide_ligand_efficiency_ln>  (1) 
-1.1140912706479054

>  <r_i_glide_ligand_efficiency_sa>  (1) 
-0.46263698173504797

>  <r_i_glide_lipo>  (1) 
-2.7373161453878416

>  <r_i_glide_metal>  (1) 
-0

>  <r_i_glide_rewards>  (1) 
-0.90000000000000002

>  <r_lp_Energy>  (1) 
47.597484999999999

>  <r_lp_tautomer_probability>  (1) 
1

>  <s_epik_cmdline>  (1) 
J2VwaWtfcHl0aG9uJywgJy1waHQnLCAnMS4wJywgJy1waCcsICc3LjQnLCAnLXRuJywgJzgnLCAnLW1hJywgJzUwMCcsICctaW1hZScsICc8aW5maWxlLm1hZT4nLCAnLW9tYWUnLCAnPG91dGZpbGUubWFlPic=

>  <s_epik_input>  (1) 
W0NIXTE9W0NIXVtDSDJdW0NIMl1bQ0BASF0yW0NIMl1bQ0BIXShbQ0gzXSlbQ0hdKFtDQEBIXTNbQ0BIXTEyKVtDQEBIXTNbQ0gyXU9jKGM0W0NIM10pW2NIXVtjSF1jKG40KVtDSDJdYyhbY0hdNSljKEYpW2NIXVtjSF1jNVtOSF1bQ0BIXTZDKD1bQ0gyXSlbTkhdT0MvNj1OXFtIXQ==

>  <s_glide_docking_method>  (1) 
confgen

>  <s_i_glide_gridfile>  (1) 
gpcr_drd2_6luq_protein_autoprepared_prepared

>  <s_lp_Force_Field>  (1) 
S-OPLS

>  <s_lp_Variant>  (1) 
DiffSBDD_26_num_sample_100-1

>  <s_m_source_file>  (1) 
generated__ligand_DiffSBDD_2026-05-06_prepared.sdf

>  <GenAI_Model>  (1) 
DiffSBDD

>  <Protein>  (1) 
generic_title2

$$$$
DiffSBDD_22_num_sample_100
     RDKit          3D

  0  0  0  0  0  0  0  0  0  0999 V3000
M  V30 BEGIN CTAB
M  V30 COUNTS 45 47 0 0 1
M  V30 BEGIN ATOM
M  V30 1 C 7.874030 5.182609 -14.815628 0
M  V30 2 C 5.532562 6.935151 -17.197721 0
M  V30 3 C 7.625244 5.954371 -12.502156 0
M  V30 4 C 11.435701 9.068214 -4.770263 0
M  V30 5 O 9.434839 4.169301 -11.087384 0
M  V30 6 C 6.473967 5.944166 -19.053016 0
M  V30 7 N 6.563297 6.169293 -16.681880 0
M  V30 8 C 8.985874 5.191678 -8.976296 0
M  V30 9 C 6.286196 6.969302 -14.278806 0
M  V30 10 C 8.817798 5.043460 -10.494597 0
M  V30 11 O 4.634840 7.444332 -19.270157 0 CHG=-1
M  V30 12 C 10.927809 8.450554 -8.539350 0
M  V30 13 O 12.816948 9.369302 -6.691667 0
M  V30 14 N 9.372261 6.538193 -8.507353 0
M  V30 15 N 7.962124 5.914626 -11.091665 0
M  V30 16 C 10.682410 6.993669 -8.973669 0
M  V30 17 C 9.437111 8.091934 -6.597915 0
M  V30 18 C 9.242337 6.633285 -7.049151 0
M  V30 19 C 8.237712 5.098868 -13.460945 0
M  V30 20 O 4.758516 7.620472 -16.532866 0
M  V30 21 C 11.722010 9.010330 -6.272072 0
M  V30 22 C 6.895900 6.112526 -15.245658 0
M  V30 23 S 7.490290 5.239650 -17.853113 0
M  V30 24 N 10.737463 8.551904 -7.090069 0
M  V30 25 C 6.656099 6.882431 -12.922432 0
M  V30 26 C 5.503048 6.794128 -18.647162 0
M  V30 27 H 8.351275 4.527898 -15.525770 0
M  V30 28 H 11.201040 8.079764 -4.375156 0
M  V30 29 H 12.322581 9.420355 -4.242169 0
M  V30 30 H 10.634839 9.772158 -4.551616 0
M  V30 31 H 6.644161 5.686106 -20.087292 0
M  V30 32 H 8.029376 4.912029 -8.531821 0
M  V30 33 H 9.717076 4.461750 -8.625773 0
M  V30 34 H 5.555878 7.695749 -14.553857 0
M  V30 35 H 11.914119 8.772602 -8.875898 0
M  V30 36 H 10.207269 9.099225 -9.038777 0
M  V30 37 H 7.501618 6.605631 -10.491501 0
M  V30 38 H 11.434839 6.337417 -8.548660 0
M  V30 39 H 10.757263 6.936162 -10.059668 0
M  V30 40 H 9.297748 8.144054 -5.524942 0
M  V30 41 H 8.655452 8.717272 -7.032324 0
M  V30 42 H 8.252065 6.297881 -6.735629 0
M  V30 43 H 9.967934 5.980458 -6.561416 0
M  V30 44 H 8.981907 4.385763 -13.180668 0
M  V30 45 H 6.191567 7.537087 -12.198340 0
M  V30 END ATOM
M  V30 BEGIN BOND
M  V30 1 1 7 2
M  V30 2 2 10 5
M  V30 3 1 10 8
M  V30 4 1 14 8
M  V30 5 1 15 3
M  V30 6 1 15 10
M  V30 7 1 16 12
M  V30 8 1 16 14
M  V30 9 1 18 14
M  V30 10 1 18 17
M  V30 11 2 19 1
M  V30 12 1 19 3
M  V30 13 2 20 2
M  V30 14 1 21 4
M  V30 15 2 21 13
M  V30 16 1 22 1
M  V30 17 1 22 7
M  V30 18 2 22 9
M  V30 19 1 23 6
M  V30 20 1 23 7
M  V30 21 1 24 12
M  V30 22 1 24 17
M  V30 23 1 24 21
M  V30 24 2 25 3
M  V30 25 1 25 9
M  V30 26 1 26 2
M  V30 27 2 26 6
M  V30 28 1 26 11
M  V30 29 1 27 1
M  V30 30 1 28 4
M  V30 31 1 29 4
M  V30 32 1 30 4
M  V30 33 1 31 6
M  V30 34 1 32 8
M  V30 35 1 33 8
M  V30 36 1 34 9
M  V30 37 1 35 12
M  V30 38 1 36 12
M  V30 39 1 37 15
M  V30 40 1 38 16
M  V30 41 1 39 16
M  V30 42 1 40 17
M  V30 43 1 41 17
M  V30 44 1 42 18
M  V30 45 1 43 18
M  V30 46 1 44 19
M  V30 47 1 45 25
M  V30 END BOND
M  V30 END CTAB
M  END
>  <i_epik_Tot_Q>  (1) 
-1

>  <i_epik_Tot_abs_Q>  (1) 
1

>  <i_i_glide_confnum>  (1) 
190

>  <i_i_glide_lignum>  (1) 
36

>  <i_i_glide_posenum>  (1) 
338

>  <i_i_glide_rotatable_bonds>  (1) 
6

>  <i_lp_mmshare_version>  (1) 
72125

>  <i_m_source_file_index>  (1) 
23

>  <i_f3d_flags>  (1) 
0

>  <num_sample>  (1) 
100

>  <b_lp_Chiralities_Consistent>  (1) 
1

>  <r_epik_Charging_Adjusted_Penalty>  (1) 
0.47379864770937913

>  <r_epik_Ionization_Penalty>  (1) 
0.47380121227694488

>  <r_epik_Ionization_Penalty_Charging>  (1) 
5.626758328864977e-05

>  <r_epik_Ionization_Penalty_Neutral>  (1) 
0.47374494469365624

>  <r_epik_State_Penalty>  (1) 
0.47374238012609049

>  <r_glide_ring_energy>  (1) 
0.020434014490612575

>  <r_i_docking_score>  (1) 
-5.1338611807062655

>  <r_i_glide_ecoul>  (1) 
-2.0191497184964886

>  <r_i_glide_eff_state_penalty>  (1) 
0.47374238012609049

>  <r_i_glide_einternal>  (1) 
9.0438866627585384

>  <r_i_glide_emodel>  (1) 
-51.447324114155215

>  <r_i_glide_emodel_strain>  (1) 
0

>  <r_i_glide_energy>  (1) 
-42.109472973401623

>  <r_i_glide_erotb>  (1) 
0.68631235361621001

>  <r_i_glide_esite>  (1) 
-0.089182592765198299

>  <r_i_glide_evdw>  (1) 
-40.090323254905137

>  <r_i_glide_gscore>  (1) 
-5.6076035608323558

>  <r_i_glide_gscore_strain>  (1) 
0

>  <r_i_glide_hbond>  (1) 
-0.16

>  <r_i_glide_ligand_efficiency>  (1) 
-0.19745619925793328

>  <r_i_glide_ligand_efficiency_ln>  (1) 
-1.205670452716346

>  <r_i_glide_ligand_efficiency_sa>  (1) 
-0.58496321398428985

>  <r_i_glide_lipo>  (1) 
-1.6327293373786609

>  <r_i_glide_metal>  (1) 
-0

>  <r_i_glide_rewards>  (1) 
-2.1046153637849758

>  <r_lp_Energy>  (1) 
63.227018999999999

>  <r_lp_tautomer_probability>  (1) 
1

>  <s_epik_cmdline>  (1) 
J2VwaWtfcHl0aG9uJywgJy1waHQnLCAnMS4wJywgJy1waCcsICc3LjQnLCAnLXRuJywgJzgnLCAnLW1hJywgJzUwMCcsICctaW1hZScsICc8aW5maWxlLm1hZT4nLCAnLW9tYWUnLCAnPG91dGZpbGUubWFlPic=

>  <s_epik_input>  (1) 
Tz1DMVtDSDJdU04oQzE9TyljKFtjSF1bY0hdMilbY0hdW2NIXWMyW05IXUMoPU8pW0NIMl1OM1tDSDJdW0NIMl1OKFtDSDJdW0NIMl0zKUMoPU8pW0NIM10=

>  <s_glide_docking_method>  (1) 
confgen

>  <s_i_glide_gridfile>  (1) 
gpcr_drd2_6luq_protein_autoprepared_prepared

>  <s_lp_Force_Field>  (1) 
S-OPLS

>  <s_lp_Variant>  (1) 
DiffSBDD_22_num_sample_100-2

>  <s_m_source_file>  (1) 
generated__ligand_DiffSBDD_2026-05-06_prepared.sdf

>  <GenAI_Model>  (1) 
DiffSBDD

>  <Protein>  (1) 
generic_title2

$$$$
DiffSBDD_76_num_sample_100
     RDKit          3D

  0  0  0  0  0  0  0  0  0  0999 V3000
M  V30 BEGIN CTAB
M  V30 COUNTS 78 81 0 0 1
M  V30 BEGIN ATOM
M  V30 1 C 9.208055 7.151546 -11.077763 0
M  V30 2 C 11.456942 8.441895 -6.834672 0
M  V30 3 C 6.989005 5.673320 -11.911295 0
M  V30 4 N 9.008932 5.860197 -10.359257 0 CFG=2 CHG=1
M  V30 5 C 11.834835 8.658410 -5.480154 0
M  V30 6 C 5.534546 6.992134 -18.531138 0
M  V30 7 C 4.990665 6.715251 -17.340444 0
M  V30 8 C 7.896038 4.659923 -15.600854 0 CFG=1
M  V30 9 C 10.853129 7.912192 -9.485410 0
M  V30 10 N 7.444380 3.197165 -13.470799 0 CFG=2 CHG=1
M  V30 11 C 8.257622 2.059551 -12.935128 0
M  V30 12 C 10.348680 7.044707 -8.512840 0
M  V30 13 C 5.738931 5.970690 -16.244203 0
M  V30 14 C 10.319989 6.381100 -6.157725 0
M  V30 15 C 11.596703 9.016721 -9.083645 0
M  V30 16 C 7.606340 2.040584 -15.776009 0
M  V30 17 C 10.601201 7.653219 -10.927427 0
M  V30 18 C 6.167984 3.373125 -12.695263 0
M  V30 19 N 11.834824 9.307757 -7.799404 0
M  V30 20 O 7.354160 0.967935 -12.927191 0
M  V30 21 O 11.813344 6.903900 -2.192024 0
M  V30 22 C 6.974394 5.151787 -16.764703 0 CFG=1
M  V30 23 C 11.494212 7.695594 -4.471137 0
M  V30 24 C 5.805532 4.830164 -12.382576 0
M  V30 25 N 9.891138 3.782079 -16.950359 0 CHG=1
M  V30 26 C 7.305781 3.328987 -14.970361 0 CFG=2
M  V30 27 O 12.570650 9.767279 -5.178693 0 CHG=-1
M  V30 28 C 7.636255 5.293493 -10.551765 0
M  V30 29 C 10.694146 7.283141 -7.156423 0
M  V30 30 C 9.460248 5.855984 -8.922295 0
M  V30 31 C 9.422915 4.713650 -15.899480 0
M  V30 32 C 6.877072 6.569672 -18.854013 0
M  V30 33 C 7.566148 5.750902 -18.046330 0
M  V30 34 C 11.942456 7.817548 -3.006416 0
M  V30 35 C 10.734933 6.569394 -4.833259 0
M  V30 36 C 12.547140 9.143492 -2.545200 0
M  V30 37 H 9.051433 7.092122 -12.150523 0
M  V30 38 H 8.556238 7.931990 -10.701387 0
M  V30 39 H 7.728303 5.628620 -12.702483 0
M  V30 40 H 6.654679 6.711107 -11.861890 0
M  V30 41 H 4.964283 7.550688 -19.258406 0
M  V30 42 H 3.988791 7.050161 -17.112936 0
M  V30 43 H 7.777983 5.430208 -14.842612 0
M  V30 44 H 8.634863 2.311160 -11.944977 0
M  V30 45 H 9.125856 1.772191 -13.491676 0
M  V30 46 H 5.041903 5.369398 -15.671856 0
M  V30 47 H 6.077302 6.743066 -15.553965 0
M  V30 48 H 9.745288 5.511082 -6.410327 0
M  V30 49 H 11.996137 9.706768 -9.813626 0
M  V30 50 H 7.371315 2.162107 -16.832716 0
M  V30 51 H 8.644659 1.726186 -15.706235 0
M  V30 52 H 6.991629 1.208640 -15.434695 0
M  V30 53 H 10.632677 8.569128 -11.479533 0
M  V30 54 H 11.347406 6.971660 -11.338672 0
M  V30 55 H 5.341176 2.874797 -13.200230 0
M  V30 56 H 6.234829 2.881598 -11.725521 0
M  V30 57 H 7.694225 0.292126 -12.357057 0
M  V30 58 H 6.628421 4.230999 -17.223074 0
M  V30 59 H 5.364887 5.294699 -13.264720 0
M  V30 60 H 5.033552 4.850259 -11.614012 0
M  V30 61 H 10.877147 3.934228 -17.112765 0
M  V30 62 H 9.747555 2.823814 -16.667910 0
M  V30 63 H 6.235522 3.441992 -15.095051 0
M  V30 64 H 6.969946 5.627685 -9.757906 0
M  V30 65 H 7.708588 4.211461 -10.443673 0
M  V30 66 H 8.576060 5.909446 -8.285655 0
M  V30 67 H 9.960580 4.914125 -8.695025 0
M  V30 68 H 9.682754 5.719389 -16.228186 0
M  V30 69 H 9.996299 4.569707 -14.983030 0
M  V30 70 H 7.339360 6.926039 -19.763060 0
M  V30 71 H 8.565178 5.459211 -18.318378 0
M  V30 72 H 10.466054 5.838773 -4.083720 0
M  V30 73 H 11.881255 9.974957 -2.773862 0
M  V30 74 H 12.682011 9.129780 -1.463188 0
M  V30 75 H 13.518460 9.332194 -2.990615 0
M  V30 76 H 9.392576 3.944805 -17.814041 0
M  V30 77 H 9.641509 5.224943 -10.819347 0
M  V30 78 H 7.993123 4.003543 -13.217627 0
M  V30 END ATOM
M  V30 BEGIN BOND
M  V30 1 1 4 1
M  V30 2 2 5 2
M  V30 3 2 7 6
M  V30 4 1 11 10
M  V30 5 2 12 9
M  V30 6 1 13 7
M  V30 7 1 15 9
M  V30 8 1 17 1
M  V30 9 1 17 9
M  V30 10 1 18 10
M  V30 11 1 19 2
M  V30 12 2 19 15
M  V30 13 1 20 11
M  V30 14 1 22 8
M  V30 15 1 22 13
M  V30 16 1 23 5
M  V30 17 1 24 3
M  V30 18 1 24 18
M  V30 19 1 26 8
M  V30 20 1 26 10
M  V30 21 1 26 16
M  V30 22 1 27 5
M  V30 23 1 28 3
M  V30 24 1 28 4
M  V30 25 1 29 2
M  V30 26 1 29 12
M  V30 27 2 29 14
M  V30 28 1 30 4
M  V30 29 1 30 12
M  V30 30 1 31 8
M  V30 31 1 31 25
M  V30 32 1 32 6
M  V30 33 1 33 22
M  V30 34 2 33 32
M  V30 35 2 34 21
M  V30 36 1 34 23
M  V30 37 1 35 14
M  V30 38 2 35 23
M  V30 39 1 36 34
M  V30 40 1 37 1
M  V30 41 1 38 1
M  V30 42 1 39 3
M  V30 43 1 40 3
M  V30 44 1 41 6
M  V30 45 1 42 7
M  V30 46 1 8 43 CFG=1
M  V30 47 1 44 11
M  V30 48 1 45 11
M  V30 49 1 46 13
M  V30 50 1 47 13
M  V30 51 1 48 14
M  V30 52 1 49 15
M  V30 53 1 50 16
M  V30 54 1 51 16
M  V30 55 1 52 16
M  V30 56 1 53 17
M  V30 57 1 54 17
M  V30 58 1 55 18
M  V30 59 1 56 18
M  V30 60 1 57 20
M  V30 61 1 22 58 CFG=3
M  V30 62 1 59 24
M  V30 63 1 60 24
M  V30 64 1 61 25
M  V30 65 1 62 25
M  V30 66 1 26 63 CFG=1
M  V30 67 1 64 28
M  V30 68 1 65 28
M  V30 69 1 66 30
M  V30 70 1 67 30
M  V30 71 1 68 31
M  V30 72 1 69 31
M  V30 73 1 70 32
M  V30 74 1 71 33
M  V30 75 1 72 35
M  V30 76 1 73 36
M  V30 77 1 74 36
M  V30 78 1 75 36
M  V30 79 1 76 25
M  V30 80 1 4 77 CFG=3
M  V30 81 1 10 78 CFG=1
M  V30 END BOND
M  V30 END CTAB
M  END
>  <i_epik_Tot_Q>  (1) 
2

>  <i_epik_Tot_abs_Q>  (1) 
4

>  <i_i_glide_confnum>  (1) 
1964

>  <i_i_glide_lignum>  (1) 
157

>  <i_i_glide_posenum>  (1) 
110

>  <i_i_glide_rotatable_bonds>  (1) 
12

>  <i_lp_mmshare_version>  (1) 
72125

>  <i_m_source_file_index>  (1) 
77

>  <i_f3d_flags>  (1) 
0

>  <num_sample>  (1) 
100

>  <b_lp_Chiralities_Consistent>  (1) 
1

>  <r_epik_Charging_Adjusted_Penalty>  (1) 
2.7385366295040585

>  <r_epik_Ionization_Penalty>  (1) 
1.4403839023663505

>  <r_epik_Ionization_Penalty_Charging>  (1) 
1.4088334024277234

>  <r_epik_Ionization_Penalty_Neutral>  (1) 
0.03155049993862722

>  <r_epik_State_Penalty>  (1) 
1.3297032270763354

>  <r_glide_ring_energy>  (1) 
0.68305203791256774

>  <r_i_docking_score>  (1) 
-5.1316933392510329

>  <r_i_glide_ecoul>  (1) 
-9.5271344313538187

>  <r_i_glide_eff_state_penalty>  (1) 
1.3297032270763354

>  <r_i_glide_einternal>  (1) 
25.941658271667109

>  <r_i_glide_emodel>  (1) 
-38.836236184467566

>  <r_i_glide_emodel_strain>  (1) 
5.9073658418892734

>  <r_i_glide_energy>  (1) 
-36.61457156879311

>  <r_i_glide_erotb>  (1) 
0.66625950385389887

>  <r_i_glide_esite>  (1) 
-0.073197610327821308

>  <r_i_glide_evdw>  (1) 
-27.087437137439288

>  <r_i_glide_gscore>  (1) 
-6.4613965663273678

>  <r_i_glide_gscore_strain>  (1) 
0.47684146047231835

>  <r_i_glide_hbond>  (1) 
0

>  <r_i_glide_ligand_efficiency>  (1) 
-0.14254703720141759

>  <r_i_glide_ligand_efficiency_ln>  (1) 
-1.1195968442926445

>  <r_i_glide_ligand_efficiency_sa>  (1) 
-0.47067994638455685

>  <r_i_glide_lipo>  (1) 
-3.1952595285919974

>  <r_i_glide_metal>  (1) 
-0

>  <r_i_glide_rewards>  (1) 
-1.5525983701587298

>  <r_lp_Energy>  (1) 
78.881341999999989

>  <r_lp_tautomer_probability>  (1) 
0.99995000000000001

>  <s_epik_Chemistry_Notes>  (1) 
This compound contains an acetal/aminal-like group ( X-CH(R)-Y where X, Y are N, S, or O) that may be acid/base labile, releasing an aldehyde.

>  <s_epik_cmdline>  (1) 
J2VwaWtfcHl0aG9uJywgJy1waHQnLCAnMS4wJywgJy1waCcsICc3LjQnLCAnLXRuJywgJzgnLCAnLW1hJywgJzUwMCcsICctaW1hZScsICc8aW5maWxlLm1hZT4nLCAnLW9tYWUnLCAnPG91dGZpbGUubWFlPic=

>  <s_epik_input>  (1) 
Tz1DKFtDSDNdKWMoYzFbT0hdKVtjSF1bY0hdYyhjMTIpYzNjKFtjSF1uMilbQ0gyXVtDSDJdTihbQ0gyXTMpW0NIMl1bQ0gyXVtDSDJdW0NIMl1OKFtDSDJdW09IXSlbQ0BIXShbQ0gzXSlbQ0BASF0oW0NIMl1bTkgyXSlbQ0BIXTRbQ0gyXVtDSF09W0NIXVtDSF09W0NIXTQ=

>  <s_glide_docking_method>  (1) 
confgen

>  <s_i_glide_gridfile>  (1) 
gpcr_drd2_6luq_protein_autoprepared_prepared

>  <s_lp_Force_Field>  (1) 
S-OPLS

>  <s_lp_Variant>  (1) 
DiffSBDD_76_num_sample_100-6

>  <s_m_source_file>  (1) 
generated__ligand_DiffSBDD_2026-05-06_prepared.sdf

>  <GenAI_Model>  (1) 
DiffSBDD

>  <Protein>  (1) 
generic_title2

$$$$
DiffSBDD_59_num_sample_100
     RDKit          3D

  0  0  0  0  0  0  0  0  0  0999 V3000
M  V30 BEGIN CTAB
M  V30 COUNTS 74 77 0 0 1
M  V30 BEGIN ATOM
M  V30 1 C 9.329163 4.020782 -11.356498 0
M  V30 2 N 6.634800 1.054403 -15.013054 0 CFG=1 CHG=1
M  V30 3 C 6.869049 -0.361117 -15.434701 0
M  V30 4 C 6.650500 1.244982 -13.503479 0 CFG=1
M  V30 5 C 11.022471 7.135645 -11.262087 0
M  V30 6 C 9.253161 5.422653 -11.982841 0 CFG=2
M  V30 7 C 12.087120 8.540066 -1.516763 0
M  V30 8 C 11.434835 7.286485 -4.899365 0
M  V30 9 C 9.277011 6.486068 -9.684754 0
M  V30 10 C 12.171778 8.138875 -4.048329 0
M  V30 11 O 5.661189 5.142820 -11.923602 0
M  V30 12 O 11.434837 7.309054 -1.891610 0
M  V30 13 C 12.597717 9.369317 -4.552090 0
M  V30 14 C 9.834830 7.334380 -8.714624 0
M  V30 15 C 6.495528 -0.706570 -16.885657 0
M  V30 16 C 9.854693 6.383765 -10.961228 0
M  V30 17 C 11.652908 8.742471 -6.685130 0
M  V30 18 C 11.563478 8.003333 -10.291660 0
M  V30 19 N 11.149618 7.586617 -6.186058 0
M  V30 20 C 7.451784 2.068313 -15.766191 0
M  V30 21 N 6.985864 3.712261 -13.062762 0
M  V30 22 C 11.733312 6.969386 -12.597057 0
M  V30 23 C 5.941870 0.122269 -12.706436 0
M  V30 24 O 8.035347 1.159561 -13.204728 0
M  V30 25 N 11.553663 8.969307 -8.071078 0
M  V30 26 C 6.731733 4.887547 -12.473143 0
M  V30 27 C 10.979449 8.100635 -9.016763 0
M  V30 28 C 7.515750 -0.229337 -17.884859 0
M  V30 29 C 12.340349 9.679408 -5.887448 0
M  V30 30 C 7.861732 5.922180 -12.491932 0
M  V30 31 C 7.709613 3.538151 -17.822259 0
M  V30 32 C 12.530624 7.732991 -2.683641 0 CFG=2
M  V30 33 C 7.200118 2.189414 -17.287433 0 CFG=1
M  V30 34 C 6.053583 2.599221 -13.019798 0
M  V30 35 C 7.830666 1.055349 -18.063874 0
M  V30 36 H 10.233697 3.953424 -10.766948 0
M  V30 37 H 8.503988 3.826557 -10.675879 0
M  V30 38 H 9.368328 3.228160 -12.101728 0
M  V30 39 H 7.904050 -0.631067 -15.223930 0
M  V30 40 H 6.234912 -1.030643 -14.860728 0
M  V30 41 H 9.882670 5.337579 -12.862414 0
M  V30 42 H 12.780800 8.522935 -0.691642 0
M  V30 43 H 11.518650 9.451321 -1.688642 0
M  V30 44 H 11.095255 6.323384 -4.546769 0
M  V30 45 H 8.394875 5.910579 -9.445951 0
M  V30 46 H 13.160997 10.049235 -3.931528 0
M  V30 47 H 9.365723 7.408603 -7.746928 0
M  V30 48 H 6.426148 -1.790616 -16.989260 0
M  V30 49 H 5.510122 -0.313364 -17.139860 0
M  V30 50 H 12.451269 8.575627 -10.519011 0
M  V30 51 H 7.224147 3.053206 -15.378292 0
M  V30 52 H 8.516183 1.906495 -15.589969 0
M  V30 53 H 7.887052 3.559605 -13.492985 0
M  V30 54 H 12.532417 7.696744 -12.754911 0
M  V30 55 H 12.244085 6.018940 -12.554617 0
M  V30 56 H 11.077848 6.969436 -13.460103 0
M  V30 57 H 4.919931 -0.029166 -13.056564 0
M  V30 58 H 6.465055 -0.831659 -12.761399 0
M  V30 59 H 5.886865 0.345491 -11.639322 0
M  V30 60 H 8.154711 1.052594 -12.269435 0
M  V30 61 H 12.129783 9.709115 -8.438998 0
M  V30 62 H 8.007977 -0.988303 -18.475960 0
M  V30 63 H 12.711836 10.598039 -6.303987 0
M  V30 64 H 7.958319 6.321324 -13.502411 0
M  V30 65 H 7.526909 6.765696 -11.885219 0
M  V30 66 H 7.543444 3.628435 -18.896378 0
M  V30 67 H 7.198570 4.375367 -17.345131 0
M  V30 68 H 8.778931 3.657471 -17.643255 0
M  V30 69 H 13.407010 7.090815 -2.638570 0
M  V30 70 H 6.128505 2.151960 -17.482048 0
M  V30 71 H 5.103588 2.841843 -13.491660 0
M  V30 72 H 5.834848 2.506568 -11.956013 0
M  V30 73 H 8.575376 1.323480 -18.799705 0
M  V30 74 H 5.678164 1.232096 -15.277675 0
M  V30 END ATOM
M  V30 BEGIN BOND
M  V30 1 1 3 2
M  V30 2 1 4 2
M  V30 3 1 6 1
M  V30 4 2 10 8
M  V30 5 1 12 7
M  V30 6 1 13 10
M  V30 7 2 14 9
M  V30 8 1 15 3
M  V30 9 2 16 5
M  V30 10 1 16 6
M  V30 11 1 16 9
M  V30 12 1 18 5
M  V30 13 1 19 8
M  V30 14 2 19 17
M  V30 15 1 20 2
M  V30 16 1 22 5
M  V30 17 1 23 4
M  V30 18 1 4 24 CFG=1
M  V30 19 1 25 17
M  V30 20 2 26 11
M  V30 21 1 26 21
M  V30 22 1 27 14
M  V30 23 2 27 18
M  V30 24 1 27 25
M  V30 25 1 28 15
M  V30 26 2 29 13
M  V30 27 1 29 17
M  V30 28 1 30 6
M  V30 29 1 30 26
M  V30 30 1 32 7
M  V30 31 1 32 10
M  V30 32 1 32 12
M  V30 33 1 33 20
M  V30 34 1 33 31
M  V30 35 1 34 4
M  V30 36 1 34 21
M  V30 37 2 35 28
M  V30 38 1 35 33
M  V30 39 1 36 1
M  V30 40 1 37 1
M  V30 41 1 38 1
M  V30 42 1 39 3
M  V30 43 1 40 3
M  V30 44 1 6 41 CFG=3
M  V30 45 1 42 7
M  V30 46 1 43 7
M  V30 47 1 44 8
M  V30 48 1 45 9
M  V30 49 1 46 13
M  V30 50 1 47 14
M  V30 51 1 48 15
M  V30 52 1 49 15
M  V30 53 1 50 18
M  V30 54 1 51 20
M  V30 55 1 52 20
M  V30 56 1 53 21
M  V30 57 1 54 22
M  V30 58 1 55 22
M  V30 59 1 56 22
M  V30 60 1 57 23
M  V30 61 1 58 23
M  V30 62 1 59 23
M  V30 63 1 60 24
M  V30 64 1 61 25
M  V30 65 1 62 28
M  V30 66 1 63 29
M  V30 67 1 64 30
M  V30 68 1 65 30
M  V30 69 1 66 31
M  V30 70 1 67 31
M  V30 71 1 68 31
M  V30 72 1 32 69 CFG=3
M  V30 73 1 33 70 CFG=1
M  V30 74 1 71 34
M  V30 75 1 72 34
M  V30 76 1 73 35
M  V30 77 1 2 74 CFG=3
M  V30 END BOND
M  V30 END CTAB
M  END
>  <i_epik_Tot_Q>  (1) 
1

>  <i_epik_Tot_abs_Q>  (1) 
1

>  <i_i_glide_confnum>  (1) 
290

>  <i_i_glide_lignum>  (1) 
119

>  <i_i_glide_posenum>  (1) 
267

>  <i_i_glide_rotatable_bonds>  (1) 
11

>  <i_lp_mmshare_version>  (1) 
72125

>  <i_m_source_file_index>  (1) 
60

>  <i_f3d_flags>  (1) 
0

>  <num_sample>  (1) 
100

>  <b_lp_Chiralities_Consistent>  (1) 
1

>  <r_epik_Charging_Adjusted_Penalty>  (1) 
1.3886415501160498

>  <r_epik_Ionization_Penalty>  (1) 
0.71269190361940904

>  <r_epik_Ionization_Penalty_Charging>  (1) 
0.69432077505802503

>  <r_epik_Ionization_Penalty_Neutral>  (1) 
0.018371128561383968

>  <r_epik_State_Penalty>  (1) 
0.69432077505802492

>  <r_glide_ring_energy>  (1) 
0

>  <r_i_docking_score>  (1) 
-5.1293715361760626

>  <r_i_glide_ecoul>  (1) 
-2.8853942429316235

>  <r_i_glide_eff_state_penalty>  (1) 
0.69432077505802492

>  <r_i_glide_einternal>  (1) 
22.829369285584765

>  <r_i_glide_emodel>  (1) 
-35.331158731737581

>  <r_i_glide_emodel_strain>  (1) 
4.3044342964131346

>  <r_i_glide_energy>  (1) 
-38.107800862420589

>  <r_i_glide_erotb>  (1) 
0.88120926584797454

>  <r_i_glide_esite>  (1) 
0

>  <r_i_glide_evdw>  (1) 
-35.222406619488964

>  <r_i_glide_gscore>  (1) 
-5.8236923112340877

>  <r_i_glide_gscore_strain>  (1) 
0.076108574103283644

>  <r_i_glide_hbond>  (1) 
-0.12684502137521203

>  <r_i_glide_ligand_efficiency>  (1) 
-0.14655347246217321

>  <r_i_glide_ligand_efficiency_ln>  (1) 
-1.1260108924583399

>  <r_i_glide_ligand_efficiency_sa>  (1) 
-0.4793861264121661

>  <r_i_glide_lipo>  (1) 
-3.1245131785756484

>  <r_i_glide_metal>  (1) 
-0

>  <r_i_glide_rewards>  (1) 
-1.3357224838202941

>  <r_lp_Energy>  (1) 
34.238330999999995

>  <r_lp_tautomer_probability>  (1) 
0.99999977220005165

>  <s_epik_cmdline>  (1) 
J2VwaWtfcHl0aG9uJywgJy1waHQnLCAnMS4wJywgJy1waCcsICc3LjQnLCAnLXRuJywgJzgnLCAnLW1hJywgJzUwMCcsICctaW1hZScsICc8aW5maWxlLm1hZT4nLCAnLW9tYWUnLCAnPG91dGZpbGUubWFlPic=

>  <s_epik_input>  (1) 
W0NIMl0xW0NAQEhdKFtDSDNdKVtDSF09W0NIXVtDSDJdW0NIMl1OMVtDQEBdKFtDSDNdKShbT0hdKVtDSDJdW05IXUMoPU8pW0NIMl1bQ0BIXShbQ0gzXSljKGMyW0NIM10pW2NIXVtjSF1jKFtjSF0yKVtOSF1jKFtjSF1bY0hdMyluW2NIXWMzW0NASF00W0NIMl1PNA==

>  <s_glide_docking_method>  (1) 
confgen

>  <s_i_glide_gridfile>  (1) 
gpcr_drd2_6luq_protein_autoprepared_prepared

>  <s_lp_Force_Field>  (1) 
S-OPLS

>  <s_lp_Variant>  (1) 
DiffSBDD_59_num_sample_100-3

>  <s_m_source_file>  (1) 
generated__ligand_DiffSBDD_2026-05-06_prepared.sdf

>  <GenAI_Model>  (1) 
DiffSBDD

>  <Protein>  (1) 
generic_title2

$$$$
DiffSBDD_53_num_sample_100
     RDKit          3D

  0  0  0  0  0  0  0  0  0  0999 V3000
M  V30 BEGIN CTAB
M  V30 COUNTS 57 60 0 0 1
M  V30 BEGIN ATOM
M  V30 1 N 10.285578 6.903695 -9.015249 0
M  V30 2 C 4.947739 5.049998 -20.527466 0
M  V30 3 C 8.852494 6.003242 -12.362240 0
M  V30 4 C 10.158510 6.816154 -7.664725 0
M  V30 5 O 5.834838 6.541059 -13.923782 0
M  V30 6 C 7.530871 3.978864 -15.557835 0
M  V30 7 C 7.797341 5.134725 -12.011751 0
M  V30 8 O 7.847690 5.534322 -23.432570 0
M  V30 9 C 6.375666 8.690334 -21.091630 0
M  V30 10 C 6.038813 6.159215 -20.434224 0 CFG=2
M  V30 11 F 4.338136 7.637512 -21.286636 0
M  V30 12 C 11.183249 7.597236 -6.843516 0
M  V30 13 F 12.302317 7.783331 -7.545995 0
M  V30 14 C 7.335327 5.612202 -21.084718 0
M  V30 15 C 9.664233 6.569291 -11.362786 0
M  V30 16 C 9.434838 6.268730 -10.003735 0
M  V30 17 F 10.669329 8.777579 -6.497247 0
M  V30 18 C 6.455770 5.515650 -14.201802 0
M  V30 19 N 6.485271 5.856230 -16.691124 0
M  V30 20 C 7.127017 5.970552 -22.538570 0
M  V30 21 C 5.599270 7.013333 -16.677468 0
M  V30 22 C 8.383290 5.369301 -9.652569 0
M  V30 23 C 6.906146 4.533538 -13.089430 0 CFG=1
M  V30 24 C 6.874485 5.459339 -18.033730 0
M  V30 25 C 5.970987 6.900936 -22.814583 0
M  V30 26 C 6.840579 5.104366 -15.550913 0
M  V30 27 C 6.319502 6.567257 -18.950030 0 CFG=2
M  V30 28 C 5.142713 7.139394 -18.135793 0
M  V30 29 S 7.834830 3.209566 -14.015681 0
M  V30 30 O 9.292329 6.169292 -7.091657 0
M  V30 31 C 5.639723 7.362362 -21.378850 0 CFG=1
M  V30 32 C 7.569491 4.817357 -10.659306 0
M  V30 33 H 11.028778 7.484258 -9.371043 0
M  V30 34 H 4.746477 4.753913 -21.556987 0
M  V30 35 H 5.233964 4.138064 -20.006774 0
M  V30 36 H 3.993090 5.369299 -20.114676 0
M  V30 37 H 9.034217 6.241115 -13.399135 0
M  V30 38 H 7.905848 3.507333 -16.453679 0
M  V30 39 H 7.459038 8.566585 -21.087420 0
M  V30 40 H 6.137461 9.437264 -21.849538 0
M  V30 41 H 6.082651 9.118860 -20.134988 0
M  V30 42 H 11.434825 7.054478 -5.932273 0
M  V30 43 H 8.224637 6.125515 -20.718632 0
M  V30 44 H 7.463657 4.538796 -20.943859 0
M  V30 45 H 10.461537 7.243280 -11.638513 0
M  V30 46 H 4.719625 6.881018 -16.048591 0
M  V30 47 H 6.146797 7.898962 -16.351277 0
M  V30 48 H 8.182640 5.112463 -8.633957 0
M  V30 49 H 6.018705 4.093593 -12.633996 0
M  V30 50 H 7.958324 5.374046 -18.124688 0
M  V30 51 H 6.440184 4.483457 -18.243386 0
M  V30 52 H 6.247285 7.718343 -23.480937 0
M  V30 53 H 5.151738 6.337502 -23.261341 0
M  V30 54 H 7.092952 7.335301 -18.954668 0
M  V30 55 H 4.244193 6.539763 -18.271992 0
M  V30 56 H 4.892087 8.165826 -18.401133 0
M  V30 57 H 6.764416 4.150170 -10.390293 0
M  V30 END ATOM
M  V30 BEGIN BOND
M  V30 1 1 4 1
M  V30 2 1 7 3
M  V30 3 1 10 2 CFG=1
M  V30 4 1 12 4
M  V30 5 1 13 12
M  V30 6 1 14 10
M  V30 7 2 15 3
M  V30 8 1 16 1
M  V30 9 1 16 15
M  V30 10 1 17 12
M  V30 11 2 18 5
M  V30 12 2 20 8
M  V30 13 1 20 14
M  V30 14 1 21 19
M  V30 15 2 22 16
M  V30 16 1 23 7
M  V30 17 1 23 18
M  V30 18 1 24 19
M  V30 19 1 25 20
M  V30 20 2 26 6
M  V30 21 1 26 18
M  V30 22 1 26 19
M  V30 23 1 27 10
M  V30 24 1 27 24
M  V30 25 1 28 21
M  V30 26 1 28 27
M  V30 27 1 29 6
M  V30 28 1 29 23
M  V30 29 2 30 4
M  V30 30 1 31 9
M  V30 31 1 31 10
M  V30 32 1 31 11 CFG=3
M  V30 33 1 31 25
M  V30 34 2 32 7
M  V30 35 1 32 22
M  V30 36 1 33 1
M  V30 37 1 34 2
M  V30 38 1 35 2
M  V30 39 1 36 2
M  V30 40 1 37 3
M  V30 41 1 38 6
M  V30 42 1 39 9
M  V30 43 1 40 9
M  V30 44 1 41 9
M  V30 45 1 42 12
M  V30 46 1 43 14
M  V30 47 1 44 14
M  V30 48 1 45 15
M  V30 49 1 46 21
M  V30 50 1 47 21
M  V30 51 1 48 22
M  V30 52 1 23 49 CFG=1
M  V30 53 1 50 24
M  V30 54 1 51 24
M  V30 55 1 52 25
M  V30 56 1 53 25
M  V30 57 1 27 54 CFG=3
M  V30 58 1 55 28
M  V30 59 1 56 28
M  V30 60 1 57 32
M  V30 END BOND
M  V30 END CTAB
M  END
>  <i_epik_Tot_Q>  (1) 
0

>  <i_epik_Tot_abs_Q>  (1) 
0

>  <i_i_glide_confnum>  (1) 
79

>  <i_i_glide_lignum>  (1) 
99

>  <i_i_glide_posenum>  (1) 
389

>  <i_i_glide_rotatable_bonds>  (1) 
6

>  <i_lp_mmshare_version>  (1) 
72125

>  <i_m_source_file_index>  (1) 
54

>  <i_f3d_flags>  (1) 
0

>  <num_sample>  (1) 
100

>  <b_lp_Chiralities_Consistent>  (1) 
1

>  <r_epik_Charging_Adjusted_Penalty>  (1) 
4.1888359508332041e-06

>  <r_epik_Ionization_Penalty>  (1) 
8.7681406238932585e-06

>  <r_epik_Ionization_Penalty_Charging>  (1) 
4.1888359508332041e-06

>  <r_epik_Ionization_Penalty_Neutral>  (1) 
4.5793046730600536e-06

>  <r_epik_State_Penalty>  (1) 
-0

>  <r_glide_ring_energy>  (1) 
0.96684297087673354

>  <r_i_docking_score>  (1) 
-5.1280746663956398

>  <r_i_glide_ecoul>  (1) 
1.9433154400058263

>  <r_i_glide_eff_state_penalty>  (1) 
-0

>  <r_i_glide_einternal>  (1) 
0.41966282221799212

>  <r_i_glide_emodel>  (1) 
-50.901033091862466

>  <r_i_glide_emodel_strain>  (1) 
0.010281412748980756

>  <r_i_glide_energy>  (1) 
-38.910718938095485

>  <r_i_glide_erotb>  (1) 
0.46348911734649417

>  <r_i_glide_esite>  (1) 
-0.0528397439641696

>  <r_i_glide_evdw>  (1) 
-40.854034378101311

>  <r_i_glide_gscore>  (1) 
-5.1280746663956398

>  <r_i_glide_gscore_strain>  (1) 
0

>  <r_i_glide_hbond>  (1) 
0

>  <r_i_glide_ligand_efficiency>  (1) 
-0.16025233332486374

>  <r_i_glide_ligand_efficiency_ln>  (1) 
-1.1483157038419287

>  <r_i_glide_ligand_efficiency_sa>  (1) 
-0.50876944500049459

>  <r_i_glide_lipo>  (1) 
-1.9014573878351348

>  <r_i_glide_metal>  (1) 
-0

>  <r_i_glide_rewards>  (1) 
-1.8860622490386383

>  <r_lp_Energy>  (1) 
16.010603

>  <r_lp_tautomer_probability>  (1) 
1

>  <s_epik_Chemistry_Notes>  (1) 
This compound has an imine and may undergo hydrolysis.

>  <s_epik_cmdline>  (1) 
J2VwaWtfcHl0aG9uJywgJy1waHQnLCAnMS4wJywgJy1waCcsICc3LjQnLCAnLXRuJywgJzgnLCAnLW1hJywgJzUwMCcsICctaW1hZScsICc8aW5maWxlLm1hZT4nLCAnLW9tYWUnLCAnPG91dGZpbGUubWFlPic=

>  <s_epik_input>  (1) 
RltDSF0oRilDKD1PKVtOSF1jKFtjSF1bY0hdMSlbY0hdW2NIXWMxW0NAQEhdKEMyPU8pU1tDSF09QzJOM1tDSDJdW0NIMl1bQ0BASF0oW0NIMl0zKVtDQF00KFtDSDNdKVtDSDJdQyg9TylbQ0gyXVtDQF00KEYpW0NIM10=

>  <s_glide_docking_method>  (1) 
confgen

>  <s_i_glide_gridfile>  (1) 
gpcr_drd2_6luq_protein_autoprepared_prepared

>  <s_lp_Force_Field>  (1) 
S-OPLS

>  <s_lp_Variant>  (1) 
DiffSBDD_53_num_sample_100-1

>  <s_m_source_file>  (1) 
generated__ligand_DiffSBDD_2026-05-06_prepared.sdf

>  <GenAI_Model>  (1) 
DiffSBDD

>  <Protein>  (1) 
generic_title2

$$$$
DiffSBDD_92_num_sample_100
     RDKit          3D

  0  0  0  0  0  0  0  0  0  0999 V3000
M  V30 BEGIN CTAB
M  V30 COUNTS 65 67 0 0 1
M  V30 BEGIN ATOM
M  V30 1 F 11.835195 5.769283 -4.942501 0
M  V30 2 C 9.819783 6.422057 -10.098602 0 CFG=1
M  V30 3 C 7.435425 5.769254 -16.449832 0
M  V30 4 C 11.434838 9.331022 -4.315718 0
M  V30 5 S 9.282221 4.168450 -12.182858 0
M  V30 6 F 8.234806 6.724615 -13.891694 0
M  V30 7 C 11.834754 6.933630 -4.313764 0
M  V30 8 C 6.235207 2.674364 -12.752138 0
M  V30 9 C 10.799244 7.967461 -6.431528 0 CFG=2
M  V30 10 C 5.159926 6.169250 -15.672724 0
M  V30 11 S 9.834597 5.355392 -8.639470 0
M  V30 12 C 6.167989 4.175699 -13.122912 0 CFG=1
M  V30 13 C 8.171277 5.260396 -11.599111 0
M  V30 14 N 8.478165 6.242209 -10.691721 0
M  V30 15 C 5.794269 5.038805 -10.791195 0
M  V30 16 C 12.278986 6.997819 -2.986781 0
M  V30 17 C 6.246559 6.611752 -12.724675 0 CFG=1
M  V30 18 C 8.878558 6.318612 -7.459385 0
M  V30 19 C 11.859209 9.376851 -2.964662 0
M  V30 20 C 11.505660 8.175531 -9.006887 0
M  V30 21 C 11.392902 8.089473 -4.989874 0
M  V30 22 C 6.945573 6.831042 -14.099317 0 CFG=2
M  V30 23 C 6.657038 5.252889 -12.053543 0 CFG=2
M  V30 24 C 12.281267 8.214655 -2.310786 0
M  V30 25 O 11.034512 10.473360 -4.943549 0 CHG=-1
M  V30 26 F 11.834843 10.531529 -2.291671 0
M  V30 27 C 9.697863 6.867959 -6.310223 0
M  V30 28 C 6.560549 5.786627 -15.177296 0
M  V30 29 C 10.133569 7.892546 -9.698173 0
M  V30 30 C 11.828420 7.698227 -7.547440 0
M  V30 31 O 6.376994 7.769330 -11.912942 0
M  V30 32 C 6.701475 4.371232 -14.563476 0
M  V30 33 H 10.592533 6.169432 -10.818328 0
M  V30 34 H 7.214771 6.611068 -17.099662 0
M  V30 35 H 8.501755 5.768744 -16.225173 0
M  V30 36 H 7.234906 4.883172 -17.057170 0
M  V30 37 H 7.238938 2.258590 -12.804632 0
M  V30 38 H 5.835069 2.467420 -11.761445 0
M  V30 39 H 5.633252 2.085045 -13.447442 0
M  V30 40 H 10.285738 8.892734 -6.692409 0
M  V30 41 H 5.020315 7.248146 -15.749075 0
M  V30 42 H 4.917498 5.758770 -16.650625 0
M  V30 43 H 4.436681 5.769305 -14.977168 0
M  V30 44 H 5.092960 4.339807 -13.215708 0
M  V30 45 H 7.734674 6.867842 -10.376468 0
M  V30 46 H 4.733656 5.105409 -11.026596 0
M  V30 47 H 5.973535 4.072629 -10.322350 0
M  V30 48 H 5.986168 5.769454 -10.013453 0
M  V30 49 H 12.610314 6.100403 -2.486145 0
M  V30 50 H 5.171049 6.591595 -12.902158 0
M  V30 51 H 8.267499 7.086363 -7.891551 0
M  V30 52 H 8.150789 5.620718 -7.048492 0
M  V30 53 H 11.637926 9.259139 -9.020864 0
M  V30 54 H 12.291657 7.793866 -9.658134 0
M  V30 55 H 6.791681 7.843531 -14.471555 0
M  V30 56 H 12.605292 8.262387 -1.282711 0
M  V30 57 H 9.034821 7.266911 -5.566047 0
M  V30 58 H 10.018086 5.937921 -5.880643 0
M  V30 59 H 10.127946 8.461975 -10.627542 0
M  V30 60 H 9.336606 8.359063 -9.127275 0
M  V30 61 H 12.733167 8.243746 -7.283326 0
M  V30 62 H 12.108513 6.649302 -7.491935 0
M  V30 63 H 6.260929 7.588980 -10.979208 0
M  V30 64 H 7.751756 4.090140 -14.589898 0
M  V30 65 H 6.234806 3.643364 -15.221537 0
M  V30 END ATOM
M  V30 BEGIN BOND
M  V30 1 1 7 1
M  V30 2 1 11 2
M  V30 3 1 12 8
M  V30 4 2 13 5
M  V30 5 1 14 2
M  V30 6 1 14 13
M  V30 7 1 16 7
M  V30 8 1 18 11
M  V30 9 2 19 4
M  V30 10 1 21 4
M  V30 11 2 21 7
M  V30 12 1 21 9
M  V30 13 1 22 6
M  V30 14 1 22 17
M  V30 15 1 23 12
M  V30 16 1 23 13
M  V30 17 1 23 15 CFG=1
M  V30 18 1 23 17
M  V30 19 2 24 16
M  V30 20 1 24 19
M  V30 21 1 25 4
M  V30 22 1 26 19
M  V30 23 1 27 9
M  V30 24 1 27 18
M  V30 25 1 28 3
M  V30 26 1 28 10
M  V30 27 1 28 22
M  V30 28 1 29 2
M  V30 29 1 29 20
M  V30 30 1 30 9
M  V30 31 1 30 20
M  V30 32 1 31 17
M  V30 33 1 32 12
M  V30 34 1 32 28
M  V30 35 1 2 33 CFG=3
M  V30 36 1 34 3
M  V30 37 1 35 3
M  V30 38 1 36 3
M  V30 39 1 37 8
M  V30 40 1 38 8
M  V30 41 1 39 8
M  V30 42 1 9 40 CFG=3
M  V30 43 1 41 10
M  V30 44 1 42 10
M  V30 45 1 43 10
M  V30 46 1 12 44 CFG=3
M  V30 47 1 45 14
M  V30 48 1 46 15
M  V30 49 1 47 15
M  V30 50 1 48 15
M  V30 51 1 49 16
M  V30 52 1 17 50 CFG=3
M  V30 53 1 51 18
M  V30 54 1 52 18
M  V30 55 1 53 20
M  V30 56 1 54 20
M  V30 57 1 22 55 CFG=3
M  V30 58 1 56 24
M  V30 59 1 57 27
M  V30 60 1 58 27
M  V30 61 1 59 29
M  V30 62 1 60 29
M  V30 63 1 61 30
M  V30 64 1 62 30
M  V30 65 1 63 31
M  V30 66 1 64 32
M  V30 67 1 65 32
M  V30 END BOND
M  V30 END CTAB
M  END
>  <i_epik_Tot_Q>  (1) 
-1

>  <i_epik_Tot_abs_Q>  (1) 
1

>  <i_i_glide_confnum>  (1) 
90

>  <i_i_glide_lignum>  (1) 
187

>  <i_i_glide_posenum>  (1) 
292

>  <i_i_glide_rotatable_bonds>  (1) 
5

>  <i_lp_mmshare_version>  (1) 
72125

>  <i_m_source_file_index>  (1) 
93

>  <i_f3d_flags>  (1) 
0

>  <num_sample>  (1) 
100

>  <b_lp_Chiralities_Consistent>  (1) 
1

>  <r_epik_Charging_Adjusted_Penalty>  (1) 
1.873832089241678

>  <r_epik_Ionization_Penalty>  (1) 
0.93691654502727262

>  <r_epik_Ionization_Penalty_Charging>  (1) 
0.93691604462083899

>  <r_epik_Ionization_Penalty_Neutral>  (1) 
5.0040643357861175e-07

>  <r_epik_State_Penalty>  (1) 
0.93691604462083899

>  <r_glide_ring_energy>  (1) 
0.24726830538804337

>  <r_i_docking_score>  (1) 
-5.1257285903671344

>  <r_i_glide_ecoul>  (1) 
-7.024139220630337

>  <r_i_glide_eff_state_penalty>  (1) 
0.93691604462083899

>  <r_i_glide_einternal>  (1) 
7.6118220187387067

>  <r_i_glide_emodel>  (1) 
-16.473424279348105

>  <r_i_glide_emodel_strain>  (1) 
4.0609383195942357

>  <r_i_glide_energy>  (1) 
-16.395549282655921

>  <r_i_glide_erotb>  (1) 
0.34068725043507714

>  <r_i_glide_esite>  (1) 
-0.10509558741693564

>  <r_i_glide_evdw>  (1) 
-9.3714100620255838

>  <r_i_glide_gscore>  (1) 
-6.062644634987973

>  <r_i_glide_gscore_strain>  (1) 
0.01523457989855892

>  <r_i_glide_hbond>  (1) 
-0.29050594621592979

>  <r_i_glide_ligand_efficiency>  (1) 
-0.16017901844897295

>  <r_i_glide_ligand_efficiency_ln>  (1) 
-1.1477903534675291

>  <r_i_glide_ligand_efficiency_sa>  (1) 
-0.50853668477826663

>  <r_i_glide_lipo>  (1) 
-3.1544049972349057

>  <r_i_glide_metal>  (1) 
-0

>  <r_i_glide_rewards>  (1) 
-1.346368548258007

>  <r_lp_Energy>  (1) 
80.447412999999997

>  <s_epik_Chemistry_Notes>  (1) 
This compound contains an acetal/aminal-like group ( X-CH(R)-Y where X, Y are N, S, or O) that may be acid/base labile, releasing an aldehyde.

>  <s_epik_cmdline>  (1) 
J2VwaWtfcHl0aG9uJywgJy1waHQnLCAnMS4wJywgJy1waCcsICc3LjQnLCAnLXRuJywgJzgnLCAnLW1hJywgJzUwMCcsICctaW1hZScsICc8aW5maWxlLm1hZT4nLCAnLW9tYWUnLCAnPG91dGZpbGUubWFlPic=

>  <s_epik_input>  (1) 
W09IXWMxYyhGKVtjSF1bY0hdYyhGKWMxW0NAQEhdKFtDSDJdW0NIMl1bQ0gyXTIpW0NIMl1bQ0gyXVNbQ0BIXTJbTkhdQyg9UylbQ0BdMyhbQ0gzXSlbQ0BIXShbQ0gzXSlbQ0gyXUMoW0NIM10pKFtDSDNdKVtDQEhdKEYpW0NAQEhdM1tPSF0=

>  <s_glide_docking_method>  (1) 
confgen

>  <s_i_glide_gridfile>  (1) 
gpcr_drd2_6luq_protein_autoprepared_prepared

>  <s_lp_Force_Field>  (1) 
S-OPLS

>  <s_lp_Variant>  (1) 
DiffSBDD_92_num_sample_100-2

>  <s_m_source_file>  (1) 
generated__ligand_DiffSBDD_2026-05-06_prepared.sdf

>  <GenAI_Model>  (1) 
DiffSBDD

>  <Protein>  (1) 
generic_title2

$$$$
DiffSBDD_76_num_sample_100
     RDKit          3D

  0  0  0  0  0  0  0  0  0  0999 V3000
M  V30 BEGIN CTAB
M  V30 COUNTS 78 81 0 0 1
M  V30 BEGIN ATOM
M  V30 1 C 5.616631 6.339822 -14.362808 0
M  V30 2 C 8.050013 3.865836 -18.152054 0
M  V30 3 C 7.764047 7.393173 -12.577426 0
M  V30 4 N 6.590941 5.442881 -13.696650 0 CFG=2 CHG=1
M  V30 5 C 8.674801 2.879957 -18.972399 0
M  V30 6 C 12.234753 7.932398 -3.492944 0
M  V30 7 C 12.519006 8.978572 -4.276473 0
M  V30 8 C 10.652469 7.820883 -7.360977 0 CFG=1
M  V30 9 C 6.824963 5.769571 -16.526369 0
M  V30 10 N 10.458253 7.427730 -9.827164 0 CFG=1 CHG=1
M  V30 11 C 11.808635 7.683471 -10.403277 0
M  V30 12 C 7.132602 4.512401 -15.965241 0
M  V30 13 C 12.247596 9.001389 -5.776441 0
M  V30 14 C 8.065795 2.256141 -16.280501 0
M  V30 15 C 7.146125 6.004204 -17.868957 0
M  V30 16 C 9.431677 5.670414 -8.222010 0
M  V30 17 C 6.166927 6.859275 -15.694275 0
M  V30 18 C 9.502097 6.847862 -10.804702 0
M  V30 19 N 7.741771 5.093818 -18.653860 0
M  V30 20 O 12.081220 8.969251 -9.891577 0
M  V30 21 O 9.930439 -0.629376 -18.768842 0
M  V30 22 C 11.799723 7.622000 -6.403273 0 CFG=1
M  V30 23 C 8.990412 1.579782 -18.434272 0
M  V30 24 C 9.066212 7.839702 -11.895489 0
M  V30 25 N 8.634897 8.969311 -7.491714 0 CHG=1
M  V30 26 C 10.519630 6.748605 -8.484766 0 CFG=2
M  V30 27 O 8.963396 3.198421 -20.273328 0 CHG=-1
M  V30 28 C 7.892047 6.051314 -13.318419 0
M  V30 29 C 7.752739 3.533550 -16.791425 0
M  V30 30 C 6.791667 4.213582 -14.497433 0
M  V30 31 C 9.379413 8.124120 -6.604478 0
M  V30 32 C 11.649685 6.727166 -4.028893 0
M  V30 33 C 11.434857 6.569219 -5.346236 0
M  V30 34 C 9.653099 0.467681 -19.248951 0
M  V30 35 C 8.676834 1.295996 -17.092075 0
M  V30 36 C 9.973152 0.736992 -20.718777 0
M  V30 37 H 4.706994 5.768251 -14.549157 0
M  V30 38 H 5.321546 7.161899 -13.709381 0
M  V30 39 H 6.969218 7.332236 -11.831830 0
M  V30 40 H 7.456220 8.168625 -13.276872 0
M  V30 41 H 12.445643 7.993829 -2.434332 0
M  V30 42 H 12.957108 9.866008 -3.846243 0
M  V30 43 H 10.939729 8.753881 -7.838266 0
M  V30 44 H 11.816660 7.696338 -11.491946 0
M  V30 45 H 12.565538 6.978849 -10.064834 0
M  V30 46 H 13.144211 9.369019 -6.278632 0
M  V30 47 H 11.505882 9.786061 -5.931046 0
M  V30 48 H 7.835030 2.005208 -15.261111 0
M  V30 49 H 6.925523 6.957105 -18.326044 0
M  V30 50 H 9.575339 5.185812 -7.262006 0
M  V30 51 H 8.420831 6.080759 -8.211428 0
M  V30 52 H 9.462092 4.872681 -8.964635 0
M  V30 53 H 6.900963 7.643237 -15.507616 0
M  V30 54 H 5.363530 7.320647 -16.271686 0
M  V30 55 H 9.916921 5.934310 -11.228325 0
M  V30 56 H 8.577082 6.568660 -10.310813 0
M  V30 57 H 12.921538 9.279748 -10.210243 0
M  V30 58 H 12.586134 7.260453 -7.091649 0
M  V30 59 H 8.888186 8.816553 -11.446249 0
M  V30 60 H 9.848613 7.974065 -12.640826 0
M  V30 61 H 7.872790 9.383617 -6.969936 0
M  V30 62 H 9.206160 9.709470 -7.869882 0
M  V30 63 H 11.434643 6.169456 -8.479678 0
M  V30 64 H 8.531349 6.168547 -14.194420 0
M  V30 65 H 8.392138 5.317582 -12.687011 0
M  V30 66 H 7.565667 3.622925 -14.008515 0
M  V30 67 H 5.874407 3.629704 -14.452241 0
M  V30 68 H 8.796999 7.256899 -6.294140 0
M  V30 69 H 9.580360 8.694213 -5.702392 0
M  V30 70 H 11.379781 5.928496 -3.353742 0
M  V30 71 H 11.001665 5.657254 -5.705560 0
M  V30 72 H 8.908598 0.322166 -16.682272 0
M  V30 73 H 9.059296 0.965169 -21.268483 0
M  V30 74 H 10.692880 1.549306 -20.822696 0
M  V30 75 H 10.415277 -0.151015 -21.171657 0
M  V30 76 H 8.210484 8.418140 -8.235928 0
M  V30 77 H 6.163428 5.151548 -12.827952 0
M  V30 78 H 10.089673 8.350735 -9.661141 0
M  V30 END ATOM
M  V30 BEGIN BOND
M  V30 1 1 4 1
M  V30 2 2 5 2
M  V30 3 2 7 6
M  V30 4 1 11 10
M  V30 5 2 12 9
M  V30 6 1 13 7
M  V30 7 1 15 9
M  V30 8 1 17 1
M  V30 9 1 17 9
M  V30 10 1 18 10
M  V30 11 1 19 2
M  V30 12 2 19 15
M  V30 13 1 20 11
M  V30 14 1 22 8
M  V30 15 1 22 13
M  V30 16 1 23 5
M  V30 17 1 24 3
M  V30 18 1 24 18
M  V30 19 1 26 8
M  V30 20 1 26 10
M  V30 21 1 26 16
M  V30 22 1 27 5
M  V30 23 1 28 3
M  V30 24 1 28 4
M  V30 25 1 29 2
M  V30 26 1 29 12
M  V30 27 2 29 14
M  V30 28 1 30 4
M  V30 29 1 30 12
M  V30 30 1 31 8
M  V30 31 1 31 25
M  V30 32 1 32 6
M  V30 33 1 33 22
M  V30 34 2 33 32
M  V30 35 2 34 21
M  V30 36 1 34 23
M  V30 37 1 35 14
M  V30 38 2 35 23
M  V30 39 1 36 34
M  V30 40 1 37 1
M  V30 41 1 38 1
M  V30 42 1 39 3
M  V30 43 1 40 3
M  V30 44 1 41 6
M  V30 45 1 42 7
M  V30 46 1 8 43 CFG=3
M  V30 47 1 44 11
M  V30 48 1 45 11
M  V30 49 1 46 13
M  V30 50 1 47 13
M  V30 51 1 48 14
M  V30 52 1 49 15
M  V30 53 1 50 16
M  V30 54 1 51 16
M  V30 55 1 52 16
M  V30 56 1 53 17
M  V30 57 1 54 17
M  V30 58 1 55 18
M  V30 59 1 56 18
M  V30 60 1 57 20
M  V30 61 1 22 58 CFG=3
M  V30 62 1 59 24
M  V30 63 1 60 24
M  V30 64 1 61 25
M  V30 65 1 62 25
M  V30 66 1 26 63 CFG=3
M  V30 67 1 64 28
M  V30 68 1 65 28
M  V30 69 1 66 30
M  V30 70 1 67 30
M  V30 71 1 68 31
M  V30 72 1 69 31
M  V30 73 1 70 32
M  V30 74 1 71 33
M  V30 75 1 72 35
M  V30 76 1 73 36
M  V30 77 1 74 36
M  V30 78 1 75 36
M  V30 79 1 76 25
M  V30 80 1 4 77 CFG=1
M  V30 81 1 10 78 CFG=1
M  V30 END BOND
M  V30 END CTAB
M  END
>  <i_epik_Tot_Q>  (1) 
2

>  <i_epik_Tot_abs_Q>  (1) 
4

>  <i_i_glide_confnum>  (1) 
14

>  <i_i_glide_lignum>  (1) 
155

>  <i_i_glide_posenum>  (1) 
272

>  <i_i_glide_rotatable_bonds>  (1) 
12

>  <i_lp_mmshare_version>  (1) 
72125

>  <i_m_source_file_index>  (1) 
77

>  <i_f3d_flags>  (1) 
0

>  <num_sample>  (1) 
100

>  <b_lp_Chiralities_Consistent>  (1) 
1

>  <r_epik_Charging_Adjusted_Penalty>  (1) 
2.7385366295040585

>  <r_epik_Ionization_Penalty>  (1) 
1.4403839023663505

>  <r_epik_Ionization_Penalty_Charging>  (1) 
1.4088334024277234

>  <r_epik_Ionization_Penalty_Neutral>  (1) 
0.03155049993862722

>  <r_epik_State_Penalty>  (1) 
1.3297032270763354

>  <r_glide_ring_energy>  (1) 
0.68305203791256597

>  <r_i_docking_score>  (1) 
-5.1220038099883194

>  <r_i_glide_ecoul>  (1) 
-5.6234690901427165

>  <r_i_glide_eff_state_penalty>  (1) 
1.3297032270763354

>  <r_i_glide_einternal>  (1) 
17.926077917236853

>  <r_i_glide_emodel>  (1) 
-42.988440046375473

>  <r_i_glide_emodel_strain>  (1) 
1.4048339644051993

>  <r_i_glide_energy>  (1) 
-33.006708265632014

>  <r_i_glide_erotb>  (1) 
0.46638165269772919

>  <r_i_glide_esite>  (1) 
-0.080750039427458717

>  <r_i_glide_evdw>  (1) 
-27.383239175489294

>  <r_i_glide_gscore>  (1) 
-6.4517070370646552

>  <r_i_glide_gscore_strain>  (1) 
0

>  <r_i_glide_hbond>  (1) 
-0.32476682372096832

>  <r_i_glide_ligand_efficiency>  (1) 
-0.14227788361078664

>  <r_i_glide_ligand_efficiency_ln>  (1) 
-1.1174828507883487

>  <r_i_glide_ligand_efficiency_sa>  (1) 
-0.46979122080951474

>  <r_i_glide_lipo>  (1) 
-2.529682076266452

>  <r_i_glide_metal>  (1) 
-0

>  <r_i_glide_rewards>  (1) 
-1.770207428051632

>  <r_lp_Energy>  (1) 
77.906815999999992

>  <r_lp_tautomer_probability>  (1) 
0.99995000000000001

>  <s_epik_Chemistry_Notes>  (1) 
This compound contains an acetal/aminal-like group ( X-CH(R)-Y where X, Y are N, S, or O) that may be acid/base labile, releasing an aldehyde.

>  <s_epik_cmdline>  (1) 
J2VwaWtfcHl0aG9uJywgJy1waHQnLCAnMS4wJywgJy1waCcsICc3LjQnLCAnLXRuJywgJzgnLCAnLW1hJywgJzUwMCcsICctaW1hZScsICc8aW5maWxlLm1hZT4nLCAnLW9tYWUnLCAnPG91dGZpbGUubWFlPic=

>  <s_epik_input>  (1) 
Tz1DKFtDSDNdKWMoYzFbT0hdKVtjSF1bY0hdYyhjMTIpYzNjKFtjSF1uMilbQ0gyXVtDSDJdTihbQ0gyXTMpW0NIMl1bQ0gyXVtDSDJdW0NIMl1OKFtDSDJdW09IXSlbQ0BIXShbQ0gzXSlbQ0BASF0oW0NIMl1bTkgyXSlbQ0BIXTRbQ0gyXVtDSF09W0NIXVtDSF09W0NIXTQ=

>  <s_glide_docking_method>  (1) 
confgen

>  <s_i_glide_gridfile>  (1) 
gpcr_drd2_6luq_protein_autoprepared_prepared

>  <s_lp_Force_Field>  (1) 
S-OPLS

>  <s_lp_Variant>  (1) 
DiffSBDD_76_num_sample_100-4

>  <s_m_source_file>  (1) 
generated__ligand_DiffSBDD_2026-05-06_prepared.sdf

>  <GenAI_Model>  (1) 
DiffSBDD

>  <Protein>  (1) 
generic_title2

$$$$
DiffSBDD_36_num_sample_100
     RDKit          3D

  0  0  0  0  0  0  0  0  0  0999 V3000
M  V30 BEGIN CTAB
M  V30 COUNTS 101 106 0 0 1
M  V30 BEGIN ATOM
M  V30 1 C 13.246411 -1.052021 -21.461845 0
M  V30 2 O 11.162116 4.270292 -19.316073 0
M  V30 3 C 16.027795 4.453177 -18.928483 0
M  V30 4 C 9.292995 6.085531 -7.827849 0
M  V30 5 C 7.090326 3.904580 -14.351228 0 CFG=1
M  V30 6 O 7.956292 4.927336 -10.122772 0
M  V30 7 C 12.732038 5.251321 -17.221402 0
M  V30 8 C 14.610853 2.007322 -19.646280 0
M  V30 9 C 14.136065 2.980023 -18.562013 0 CFG=1
M  V30 10 C 15.811245 2.425403 -20.434271 0 CFG=1
M  V30 11 C 9.196021 5.203246 -20.124409 0
M  V30 12 C 14.554487 3.759267 -16.311782 0
M  V30 13 C 16.219112 3.900757 -20.330561 0
M  V30 14 C 14.334488 -0.186725 -20.860055 0
M  V30 15 S 9.034840 3.391114 -12.494589 0
M  V30 16 C 15.640464 -0.478349 -21.173045 0
M  V30 17 C 7.106906 2.961980 -19.026825 0
M  V30 18 C 16.846397 0.184235 -20.656038 0
M  V30 19 C 9.184024 6.129742 -11.838767 0
M  V30 20 C 9.807361 3.980226 -19.438988 0 CFG=2
M  V30 21 O 7.229559 6.387461 -14.345707 0
M  V30 22 C 4.628234 7.369347 -16.887345 0
M  V30 23 C 7.749021 2.826398 -13.520091 0
M  V30 24 C 9.582192 6.531120 -9.240545 0
M  V30 25 C 5.903648 6.697586 -14.760187 0
M  V30 26 C 14.475963 2.491841 -17.150327 0
M  V30 27 O 5.833808 2.409167 -18.691703 0
M  V30 28 C 4.789211 7.653536 -18.386239 0
M  V30 29 C 14.253347 4.919287 -17.270785 0 CFG=2
M  V30 30 C 15.066016 6.170197 -16.858648 0
M  V30 31 S 10.651909 7.768957 -9.606984 0
M  V30 32 O 9.227107 3.827512 -18.177275 0
M  V30 33 C 5.977682 7.337538 -16.154944 0
M  V30 34 C 7.849517 2.647382 -16.556557 0
M  V30 35 C 7.371270 1.537879 -13.529490 0
M  V30 36 N 14.605348 4.375115 -18.600134 0
M  V30 37 C 11.397529 5.673086 -19.448488 0 CFG=1
M  V30 38 C 7.352843 5.217161 -13.539700 0 CFG=2
M  V30 39 C 8.815620 5.769941 -10.377940 0
M  V30 40 O 6.071787 3.887535 -18.691667 0
M  V30 41 C 7.654333 3.982007 -15.803198 0
M  V30 42 O 12.544155 7.422977 -18.253616 0
M  V30 43 C 8.787349 5.125293 -12.951980 0 CFG=2
M  V30 44 C 16.919677 1.463391 -20.291278 0
M  V30 45 C 13.942746 0.864892 -19.893706 0
M  V30 46 C 8.264528 2.778578 -18.046910 0 CFG=1
M  V30 47 C 10.014560 6.320875 -19.524583 0
M  V30 48 C 12.252732 6.231584 -18.302810 0
M  V30 49 H 12.259163 -0.775125 -21.091637 0
M  V30 50 H 13.240269 -0.946528 -22.547080 0
M  V30 51 H 13.424988 -2.099984 -21.225336 0
M  V30 52 H 16.363344 5.490008 -18.930212 0
M  V30 53 H 16.634725 3.909778 -18.207734 0
M  V30 54 H 8.234882 6.194327 -7.607528 0
M  V30 55 H 9.559465 5.035699 -7.710871 0
M  V30 56 H 6.020869 3.702672 -14.388130 0
M  V30 57 H 12.500615 5.702416 -16.256043 0
M  V30 58 H 13.051925 2.997001 -18.638384 0
M  V30 59 H 15.509673 2.314114 -21.477330 0
M  V30 60 H 9.370933 5.130959 -21.198533 0
M  V30 61 H 8.126321 5.298461 -19.940718 0
M  V30 62 H 15.550017 3.843592 -15.875069 0
M  V30 63 H 13.842982 3.754295 -15.491708 0
M  V30 64 H 15.610129 4.491835 -21.016984 0
M  V30 65 H 17.250030 4.042647 -20.657202 0
M  V30 66 H 15.800703 -1.321091 -21.829523 0
M  V30 67 H 7.340888 2.905725 -20.087863 0
M  V30 68 H 17.742675 -0.404595 -20.574371 0
M  V30 69 H 10.268701 6.214245 -11.892525 0
M  V30 70 H 8.784852 7.117083 -12.072736 0
M  V30 71 H 9.718776 3.071317 -20.036769 0
M  V30 72 H 4.117821 6.412101 -16.773186 0
M  V30 73 H 3.983820 8.121226 -16.430817 0
M  V30 74 H 5.280947 5.804561 -14.810610 0
M  V30 75 H 5.434872 7.367455 -14.038530 0
M  V30 76 H 13.719463 1.802236 -16.773801 0
M  V30 77 H 15.434165 1.971281 -17.132121 0
M  V30 78 H 3.818620 7.765709 -18.867494 0
M  V30 79 H 5.352189 8.569180 -18.562281 0
M  V30 80 H 5.316534 6.839963 -18.885489 0
M  V30 81 H 14.678326 6.569047 -15.921171 0
M  V30 82 H 16.120829 5.950938 -16.691127 0
M  V30 83 H 15.011834 6.963256 -17.604737 0
M  V30 84 H 9.857224 6.670780 -7.101569 0
M  V30 85 H 6.392242 8.343410 -16.080536 0
M  V30 86 H 6.680363 6.771869 -16.765089 0
M  V30 87 H 8.634661 2.087858 -16.047524 0
M  V30 88 H 6.951256 2.035733 -16.471089 0
M  V30 89 H 6.562529 1.198682 -14.159525 0
M  V30 90 H 7.867142 0.808135 -12.905786 0
M  V30 91 H 11.925370 5.830705 -20.389561 0
M  V30 92 H 6.646507 5.273849 -12.708918 0
M  V30 93 H 6.991393 4.608988 -16.392471 0
M  V30 94 H 8.612360 4.501143 -15.787744 0
M  V30 95 H 12.136299 4.341005 -17.243730 0
M  V30 96 H 9.478096 5.295485 -13.778534 0
M  V30 97 H 17.855449 1.856497 -19.920118 0
M  V30 98 H 13.043079 0.690642 -19.321086 0
M  V30 99 H 8.748840 1.839513 -18.318878 0
M  V30 100 H 9.634291 6.569088 -18.532260 0
M  V30 101 H 10.005583 7.225049 -20.134103 0
M  V30 END ATOM
M  V30 BEGIN BOND
M  V30 1 1 9 8
M  V30 2 1 10 8
M  V30 3 1 13 3
M  V30 4 1 13 10
M  V30 5 1 14 1
M  V30 6 2 16 14
M  V30 7 1 18 16
M  V30 8 1 20 2
M  V30 9 1 20 11
M  V30 10 1 23 5
M  V30 11 1 23 15
M  V30 12 1 24 4
M  V30 13 1 25 21
M  V30 14 1 26 9
M  V30 15 1 26 12
M  V30 16 1 27 17
M  V30 17 1 28 22
M  V30 18 1 29 7 CFG=3
M  V30 19 1 29 12
M  V30 20 1 30 29
M  V30 21 2 31 24
M  V30 22 1 32 20
M  V30 23 1 33 22
M  V30 24 1 33 25
M  V30 25 2 35 23
M  V30 26 1 36 3
M  V30 27 1 36 9
M  V30 28 1 36 29
M  V30 29 1 37 2
M  V30 30 1 38 5
M  V30 31 1 38 21
M  V30 32 2 39 6
M  V30 33 1 39 19
M  V30 34 1 39 24
M  V30 35 1 40 17
M  V30 36 1 40 27
M  V30 37 1 41 5
M  V30 38 1 41 34
M  V30 39 1 43 15
M  V30 40 1 43 19
M  V30 41 1 43 38
M  V30 42 1 44 10
M  V30 43 2 44 18
M  V30 44 2 45 8
M  V30 45 1 45 14
M  V30 46 1 46 17
M  V30 47 1 46 32
M  V30 48 1 46 34
M  V30 49 1 47 11
M  V30 50 1 47 37
M  V30 51 1 48 7
M  V30 52 1 48 37
M  V30 53 2 48 42
M  V30 54 1 49 1
M  V30 55 1 50 1
M  V30 56 1 51 1
M  V30 57 1 52 3
M  V30 58 1 53 3
M  V30 59 1 54 4
M  V30 60 1 55 4
M  V30 61 1 5 56 CFG=3
M  V30 62 1 57 7
M  V30 63 1 9 58 CFG=1
M  V30 64 1 10 59 CFG=3
M  V30 65 1 60 11
M  V30 66 1 61 11
M  V30 67 1 62 12
M  V30 68 1 63 12
M  V30 69 1 64 13
M  V30 70 1 65 13
M  V30 71 1 66 16
M  V30 72 1 67 17
M  V30 73 1 68 18
M  V30 74 1 69 19
M  V30 75 1 70 19
M  V30 76 1 20 71 CFG=3
M  V30 77 1 72 22
M  V30 78 1 73 22
M  V30 79 1 74 25
M  V30 80 1 75 25
M  V30 81 1 76 26
M  V30 82 1 77 26
M  V30 83 1 78 28
M  V30 84 1 79 28
M  V30 85 1 80 28
M  V30 86 1 81 30
M  V30 87 1 82 30
M  V30 88 1 83 30
M  V30 89 1 84 4
M  V30 90 1 85 33
M  V30 91 1 86 33
M  V30 92 1 87 34
M  V30 93 1 88 34
M  V30 94 1 89 35
M  V30 95 1 90 35
M  V30 96 1 37 91 CFG=3
M  V30 97 1 38 92 CFG=1
M  V30 98 1 93 41
M  V30 99 1 94 41
M  V30 100 1 95 7
M  V30 101 1 43 96 CFG=3
M  V30 102 1 97 44
M  V30 103 1 98 45
M  V30 104 1 46 99 CFG=3
M  V30 105 1 100 47
M  V30 106 1 101 47
M  V30 END BOND
M  V30 END CTAB
M  END
>  <i_epik_Tot_Q>  (1) 
0

>  <i_epik_Tot_abs_Q>  (1) 
0

>  <i_i_glide_confnum>  (1) 
7535

>  <i_i_glide_lignum>  (1) 
64

>  <i_i_glide_posenum>  (1) 
85

>  <i_i_glide_rotatable_bonds>  (1) 
16

>  <i_lp_mmshare_version>  (1) 
72125

>  <i_m_source_file_index>  (1) 
37

>  <i_f3d_flags>  (1) 
0

>  <num_sample>  (1) 
100

>  <b_lp_Chiralities_Consistent>  (1) 
1

>  <r_epik_Charging_Adjusted_Penalty>  (1) 
0.36853766337093702

>  <r_epik_Ionization_Penalty>  (1) 
0.36853766343244521

>  <r_epik_Ionization_Penalty_Charging>  (1) 
0

>  <r_epik_Ionization_Penalty_Neutral>  (1) 
0.36853766343244521

>  <r_epik_State_Penalty>  (1) 
0.36853766337093702

>  <r_glide_ring_energy>  (1) 
0.90812249233528797

>  <r_i_docking_score>  (1) 
-5.120474543372886

>  <r_i_glide_ecoul>  (1) 
0.16570741931685684

>  <r_i_glide_eff_state_penalty>  (1) 
0.36853766337093702

>  <r_i_glide_einternal>  (1) 
10.536409680077616

>  <r_i_glide_emodel>  (1) 
-56.589310376786329

>  <r_i_glide_emodel_strain>  (1) 
2.2606158425969909

>  <r_i_glide_energy>  (1) 
-48.01978996108906

>  <r_i_glide_erotb>  (1) 
0.43754787897849062

>  <r_i_glide_esite>  (1) 
-0.19586846178840114

>  <r_i_glide_evdw>  (1) 
-48.18549738040592

>  <r_i_glide_gscore>  (1) 
-5.4890122067438227

>  <r_i_glide_gscore_strain>  (1) 
0

>  <r_i_glide_hbond>  (1) 
0

>  <r_i_glide_ligand_efficiency>  (1) 
-0.10667655298693512

>  <r_i_glide_ligand_efficiency_ln>  (1) 
-1.0511729103165333

>  <r_i_glide_ligand_efficiency_sa>  (1) 
-0.38768832240981749

>  <r_i_glide_lipo>  (1) 
-2.9746122807441804

>  <r_i_glide_metal>  (1) 
-0

>  <r_i_glide_rewards>  (1) 
-0.3716605870669642

>  <r_lp_Energy>  (1) 
26.071289

>  <r_lp_tautomer_probability>  (1) 
0.99994996000200076

>  <s_epik_Chemistry_Notes>  (1) 
This compound contains an acetal/aminal-like group ( X-CH(R)-Y where X, Y are N, S, or O) that may be acid/base labile, releasing an aldehyde.

>  <s_epik_cmdline>  (1) 
J2VwaWtfcHl0aG9uJywgJy1waHQnLCAnMS4wJywgJy1waCcsICc3LjQnLCAnLXRuJywgJzgnLCAnLW1hJywgJzUwMCcsICctaW1hZScsICc8aW5maWxlLm1hZT4nLCAnLW9tYWUnLCAnPG91dGZpbGUubWFlPic=

>  <s_epik_input>  (1) 
W0NIM11DKFtDSF0xKT1bQ0hdW0NIXT1bQ0hdW0NAQEhdMltDSDJdW0NIMl1OKFtDQEhdM0M9MTIpW0NAXShbQ0gzXSkoW0NIMl1bQ0gyXTMpL1tDSF09QyhbT0hdKS9bQ0BIXShbQ0gyXVtDSDJdNClPW0NASF00T1tDQEhdKFtDSF01T081KVtDSDJdW0NIMl1bQ0BIXTZDKD1bQ0gyXSlTW0NASF0oW0NIMl1DKD1PKUMoPVtDSDJdKVtTSF0pW0NASF02T1tDSDJdW0NIMl1bQ0gyXVtDSDNd

>  <s_glide_docking_method>  (1) 
confgen

>  <s_i_glide_gridfile>  (1) 
gpcr_drd2_6luq_protein_autoprepared_prepared

>  <s_lp_Force_Field>  (1) 
S-OPLS

>  <s_lp_Variant>  (1) 
DiffSBDD_36_num_sample_100-1

>  <s_m_source_file>  (1) 
generated__ligand_DiffSBDD_2026-05-06_prepared.sdf

>  <GenAI_Model>  (1) 
DiffSBDD

>  <Protein>  (1) 
generic_title2

$$$$
DiffSBDD_33_num_sample_100
     RDKit          3D

  0  0  0  0  0  0  0  0  0  0999 V3000
M  V30 BEGIN CTAB
M  V30 COUNTS 82 83 0 0 1
M  V30 BEGIN ATOM
M  V30 1 C 6.740712 6.939719 -15.018267 0
M  V30 2 C 6.326446 0.054315 -14.750856 0
M  V30 3 C 7.155964 2.591971 -13.843814 0
M  V30 4 C 6.225211 11.059923 -22.736538 0
M  V30 5 C 6.950294 4.968443 -16.641534 0
M  V30 6 C 7.576940 3.975037 -13.353065 0
M  V30 7 C 7.677611 2.063229 -15.044431 0
M  V30 8 C 7.228753 5.696430 -15.320716 0
M  V30 9 C 5.884977 7.769345 -15.891942 0
M  V30 10 C 5.253373 7.390460 -16.978450 0
M  V30 11 C 7.916178 5.378753 -17.769108 0
M  V30 12 C 4.476171 7.837516 -19.291953 0
M  V30 13 C 8.712868 8.044171 -22.959864 0
M  V30 14 C 7.711246 4.620274 -19.100442 0
M  V30 15 C 4.712390 11.310397 -22.694240 0
M  V30 16 C 6.739468 0.257621 -17.985566 0 CFG=2
M  V30 17 C 8.186282 4.970893 -14.368910 0
M  V30 18 C 10.241766 8.005468 -23.096764 0
M  V30 19 C 4.652640 6.969377 -18.066021 0
M  V30 20 C 5.825864 0.569189 -13.541273 0
M  V30 21 C 6.627480 9.575836 -22.742109 0 CFG=1
M  V30 22 C 6.404260 4.938760 -19.857648 0
M  V30 23 C 5.548103 -0.704438 -17.828963 0
M  V30 24 O 7.427046 -0.080537 -19.174229 0
M  V30 25 C 6.234804 1.838139 -13.091819 0
M  V30 26 N 8.440811 -1.030721 -16.691652 0 CHG=1
M  V30 27 C 8.163172 9.452302 -22.691685 0
M  V30 28 C 7.250293 0.805103 -15.509818 0
M  V30 29 C 7.778436 0.269867 -16.836361 0 CFG=2
M  V30 30 C 6.349830 6.382174 -20.419124 0
M  V30 31 O 10.849178 8.245985 -21.845932 0
M  V30 32 O 6.119831 8.945507 -21.570283 0
M  V30 33 C 4.967013 7.084695 -20.566442 0 CFG=2
M  V30 34 C 5.033742 8.043514 -21.771653 0
M  V30 35 H 7.050036 7.375265 -14.079263 0
M  V30 36 H 5.999143 -0.915575 -15.095388 0
M  V30 37 H 6.631425 11.536311 -23.630371 0
M  V30 38 H 6.707302 11.546676 -21.891642 0
M  V30 39 H 7.035383 3.905714 -16.507071 0
M  V30 40 H 5.921901 5.024687 -16.942138 0
M  V30 41 H 6.723326 4.446806 -12.864545 0
M  V30 42 H 8.311610 3.805140 -12.564651 0
M  V30 43 H 8.391722 2.628629 -15.619669 0
M  V30 44 H 5.861376 8.818744 -15.647411 0
M  V30 45 H 7.853375 6.452189 -17.934522 0
M  V30 46 H 8.936772 5.200928 -17.428012 0
M  V30 47 H 5.061814 8.749243 -19.166266 0
M  V30 48 H 3.440902 8.169091 -19.389472 0
M  V30 49 H 8.261091 7.648818 -23.867672 0
M  V30 50 H 8.424670 7.374991 -22.155929 0
M  V30 51 H 8.552610 4.838183 -19.759178 0
M  V30 52 H 7.760372 3.548119 -18.907236 0
M  V30 53 H 4.490682 12.376190 -22.749499 0
M  V30 54 H 4.273069 10.932296 -21.771099 0
M  V30 55 H 4.209372 10.823594 -23.529750 0
M  V30 56 H 6.351327 1.269534 -18.113794 0
M  V30 57 H 9.021136 4.543628 -14.922523 0
M  V30 58 H 8.654955 5.752926 -13.769671 0
M  V30 59 H 10.560807 7.024660 -23.449490 0
M  V30 60 H 10.592459 8.741505 -23.821557 0
M  V30 61 H 4.413389 5.932988 -18.189635 0
M  V30 62 H 5.119015 -0.008266 -12.961408 0
M  V30 63 H 6.259414 9.108717 -23.657364 0
M  V30 64 H 6.325338 4.253771 -20.702445 0
M  V30 65 H 5.553536 4.673525 -19.242475 0
M  V30 66 H 4.887963 -0.399721 -17.017451 0
M  V30 67 H 5.870277 -1.728531 -17.637212 0
M  V30 68 H 4.937402 -0.718839 -18.732110 0
M  V30 69 H 6.836872 0.028227 -19.907529 0
M  V30 70 H 5.839480 2.235486 -12.169173 0
M  V30 71 H 9.288939 -0.931137 -16.157637 0
M  V30 72 H 8.648410 -1.373236 -17.619476 0
M  V30 73 H 8.600473 10.139379 -23.418899 0
M  V30 74 H 8.504474 9.769270 -21.707341 0
M  V30 75 H 8.572423 0.950026 -17.151225 0
M  V30 76 H 7.020719 7.048530 -19.878728 0
M  V30 77 H 6.783321 6.291490 -21.411577 0
M  V30 78 H 10.655816 9.134152 -21.588293 0
M  V30 79 H 4.234882 6.313588 -20.807486 0
M  V30 80 H 4.097356 8.586342 -21.900045 0
M  V30 81 H 5.185077 7.453510 -22.677404 0
M  V30 82 H 7.835694 -1.690586 -16.210906 0
M  V30 END ATOM
M  V30 BEGIN BOND
M  V30 1 1 6 3
M  V30 2 2 7 3
M  V30 3 2 8 1
M  V30 4 1 8 5
M  V30 5 1 9 1
M  V30 6 2 10 9
M  V30 7 1 11 5
M  V30 8 1 14 11
M  V30 9 1 15 4
M  V30 10 1 17 6
M  V30 11 1 17 8
M  V30 12 1 18 13
M  V30 13 2 19 10
M  V30 14 1 19 12
M  V30 15 1 20 2
M  V30 16 1 21 4
M  V30 17 1 22 14
M  V30 18 1 23 16
M  V30 19 1 24 16
M  V30 20 1 25 3
M  V30 21 2 25 20
M  V30 22 1 27 13
M  V30 23 1 27 21
M  V30 24 2 28 2
M  V30 25 1 28 7
M  V30 26 1 29 16
M  V30 27 1 29 26
M  V30 28 1 29 28
M  V30 29 1 30 22
M  V30 30 1 31 18
M  V30 31 1 32 21
M  V30 32 1 33 12
M  V30 33 1 33 30
M  V30 34 1 34 32
M  V30 35 1 34 33
M  V30 36 1 35 1
M  V30 37 1 36 2
M  V30 38 1 37 4
M  V30 39 1 38 4
M  V30 40 1 39 5
M  V30 41 1 40 5
M  V30 42 1 41 6
M  V30 43 1 42 6
M  V30 44 1 43 7
M  V30 45 1 44 9
M  V30 46 1 45 11
M  V30 47 1 46 11
M  V30 48 1 47 12
M  V30 49 1 48 12
M  V30 50 1 49 13
M  V30 51 1 50 13
M  V30 52 1 51 14
M  V30 53 1 52 14
M  V30 54 1 53 15
M  V30 55 1 54 15
M  V30 56 1 55 15
M  V30 57 1 16 56 CFG=3
M  V30 58 1 57 17
M  V30 59 1 58 17
M  V30 60 1 59 18
M  V30 61 1 60 18
M  V30 62 1 61 19
M  V30 63 1 62 20
M  V30 64 1 21 63 CFG=3
M  V30 65 1 64 22
M  V30 66 1 65 22
M  V30 67 1 66 23
M  V30 68 1 67 23
M  V30 69 1 68 23
M  V30 70 1 69 24
M  V30 71 1 70 25
M  V30 72 1 71 26
M  V30 73 1 72 26
M  V30 74 1 73 27
M  V30 75 1 74 27
M  V30 76 1 29 75 CFG=3
M  V30 77 1 76 30
M  V30 78 1 77 30
M  V30 79 1 78 31
M  V30 80 1 33 79 CFG=3
M  V30 81 1 80 34
M  V30 82 1 81 34
M  V30 83 1 82 26
M  V30 END BOND
M  V30 END CTAB
M  END
>  <i_epik_Tot_Q>  (1) 
1

>  <i_epik_Tot_abs_Q>  (1) 
1

>  <i_i_glide_confnum>  (1) 
500

>  <i_i_glide_lignum>  (1) 
58

>  <i_i_glide_posenum>  (1) 
382

>  <i_i_glide_rotatable_bonds>  (1) 
14

>  <i_lp_mmshare_version>  (1) 
72125

>  <i_m_source_file_index>  (1) 
34

>  <i_f3d_flags>  (1) 
0

>  <num_sample>  (1) 
100

>  <b_lp_Chiralities_Consistent>  (1) 
1

>  <r_epik_Charging_Adjusted_Penalty>  (1) 
0.1638001962036823

>  <r_epik_Ionization_Penalty>  (1) 
0.081900497226930546

>  <r_epik_Ionization_Penalty_Charging>  (1) 
0.081900098101841165

>  <r_epik_Ionization_Penalty_Neutral>  (1) 
3.991250893861813e-07

>  <r_epik_State_Penalty>  (1) 
0.081900098101841151

>  <r_glide_ring_energy>  (1) 
0

>  <r_i_docking_score>  (1) 
-5.1203236514241235

>  <r_i_glide_ecoul>  (1) 
-4.414547384753007

>  <r_i_glide_eff_state_penalty>  (1) 
0.081900098101841151

>  <r_i_glide_einternal>  (1) 
10.501710760628452

>  <r_i_glide_emodel>  (1) 
-35.679453757498237

>  <r_i_glide_emodel_strain>  (1) 
1.2406385463505814

>  <r_i_glide_energy>  (1) 
-38.959165314800586

>  <r_i_glide_erotb>  (1) 
1.0031588910435418

>  <r_i_glide_esite>  (1) 
-0.043793384210443508

>  <r_i_glide_evdw>  (1) 
-34.544617930047579

>  <r_i_glide_gscore>  (1) 
-5.2022237495259649

>  <r_i_glide_gscore_strain>  (1) 
0

>  <r_i_glide_hbond>  (1) 
0

>  <r_i_glide_ligand_efficiency>  (1) 
-0.1505977544536507

>  <r_i_glide_ligand_efficiency_ln>  (1) 
-1.1312231148132705

>  <r_i_glide_ligand_efficiency_sa>  (1) 
-0.48787826257393552

>  <r_i_glide_lipo>  (1) 
-3.1002669766385038

>  <r_i_glide_metal>  (1) 
-0

>  <r_i_glide_rewards>  (1) 
-0.67190927550522994

>  <r_lp_Energy>  (1) 
13.020887999999999

>  <s_epik_cmdline>  (1) 
J2VwaWtfcHl0aG9uJywgJy1waHQnLCAnMS4wJywgJy1waCcsICc3LjQnLCAnLXRuJywgJzgnLCAnLW1hJywgJzUwMCcsICctaW1hZScsICc8aW5maWxlLm1hZT4nLCAnLW9tYWUnLCAnPG91dGZpbGUubWFlPic=

>  <s_epik_input>  (1) 
W0NIM11bQ0BIXShbT0hdKVtDQEhdKFtOSDJdKWMoW2NIXVtjSF1bY0hdMSlbY0hdYzFbQ0gyXVtDSDJdQ1wyPVtDSF1cW0NIXT1DPVtDSF1bQ0gyXVtDQEhdKFtDSDJdW0NIMl1bQ0gyXVtDSDJdW0NIMl0yKVtDSDJdT1tDQEBIXShbQ0gyXVtDSDNdKVtDSDJdW0NIMl1bQ0gyXVtPSF0=

>  <s_glide_docking_method>  (1) 
confgen

>  <s_i_glide_gridfile>  (1) 
gpcr_drd2_6luq_protein_autoprepared_prepared

>  <s_lp_Force_Field>  (1) 
S-OPLS

>  <s_lp_Variant>  (1) 
DiffSBDD_33_num_sample_100-1

>  <s_m_source_file>  (1) 
generated__ligand_DiffSBDD_2026-05-06_prepared.sdf

>  <GenAI_Model>  (1) 
DiffSBDD

>  <Protein>  (1) 
generic_title2

$$$$
DiffSBDD_43_num_sample_100
     RDKit          3D

  0  0  0  0  0  0  0  0  0  0999 V3000
M  V30 BEGIN CTAB
M  V30 COUNTS 37 39 0 0 1
M  V30 BEGIN ATOM
M  V30 1 C 11.834800 8.949762 -5.628582 0
M  V30 2 N 7.878845 5.271974 -12.075657 0
M  V30 3 C 8.200435 5.368790 -9.671835 0
M  V30 4 C 11.031466 7.654880 -10.498806 0
M  V30 5 N 9.142046 5.878377 -11.830868 0
M  V30 6 C 11.392326 6.942697 -4.291290 0
M  V30 7 C 7.126158 5.885158 -13.171390 0
M  V30 8 C 10.936470 7.916640 -7.686005 0
M  V30 9 C 11.879222 8.408609 -4.194748 0
M  V30 10 F 6.385155 4.169307 -10.691667 0
M  V30 11 C 10.071690 7.005859 -8.345984 0
M  V30 12 C 7.148280 5.256666 -10.785090 0 CFG=2
M  V30 13 N 10.877711 8.060027 -6.271148 0
M  V30 14 N 9.245160 5.992017 -10.454240 0
M  V30 15 C 10.111263 6.880166 -9.762642 0
M  V30 16 C 11.844027 8.684197 -8.450723 0
M  V30 17 C 10.488707 6.878926 -5.526527 0
M  V30 18 C 11.892879 8.547363 -9.844451 0
M  V30 19 H 12.834064 8.969311 -6.055020 0
M  V30 20 H 11.461503 9.974491 -5.642379 0
M  V30 21 H 8.537992 4.393329 -9.331146 0
M  V30 22 H 7.791393 5.919553 -8.831071 0
M  V30 23 H 11.073882 7.563006 -11.572707 0
M  V30 24 H 9.875015 5.257476 -12.171402 0
M  V30 25 H 12.234851 6.283133 -4.469084 0
M  V30 26 H 10.906280 6.569602 -3.389184 0
M  V30 27 H 6.180771 5.361084 -13.315029 0
M  V30 28 H 6.917090 6.932336 -12.948546 0
M  V30 29 H 7.700245 5.831240 -14.096605 0
M  V30 30 H 12.871422 8.490264 -3.750281 0
M  V30 31 H 11.205480 9.002540 -3.579572 0
M  V30 32 H 9.378032 6.421885 -7.767467 0
M  V30 33 H 6.487783 6.124345 -10.735391 0
M  V30 34 H 12.509756 9.369281 -7.972975 0
M  V30 35 H 9.434896 6.938438 -5.273032 0
M  V30 36 H 10.664801 5.943915 -6.059538 0
M  V30 37 H 12.595242 9.135838 -10.416509 0
M  V30 END ATOM
M  V30 BEGIN BOND
M  V30 1 1 5 2
M  V30 2 1 7 2
M  V30 3 1 9 1
M  V30 4 1 9 6
M  V30 5 2 11 8
M  V30 6 1 12 2
M  V30 7 1 12 3
M  V30 8 1 12 10
M  V30 9 1 13 1
M  V30 10 1 13 8
M  V30 11 1 14 3
M  V30 12 1 14 5
M  V30 13 2 15 4
M  V30 14 1 15 11
M  V30 15 1 15 14
M  V30 16 1 16 8
M  V30 17 1 17 6
M  V30 18 1 17 13
M  V30 19 1 18 4
M  V30 20 2 18 16
M  V30 21 1 19 1
M  V30 22 1 20 1
M  V30 23 1 21 3
M  V30 24 1 22 3
M  V30 25 1 23 4
M  V30 26 1 24 5
M  V30 27 1 25 6
M  V30 28 1 26 6
M  V30 29 1 27 7
M  V30 30 1 28 7
M  V30 31 1 29 7
M  V30 32 1 30 9
M  V30 33 1 31 9
M  V30 34 1 32 11
M  V30 35 1 12 33 CFG=3
M  V30 36 1 34 16
M  V30 37 1 35 17
M  V30 38 1 36 17
M  V30 39 1 37 18
M  V30 END BOND
M  V30 END CTAB
M  END
>  <i_epik_Tot_Q>  (1) 
0

>  <i_epik_Tot_abs_Q>  (1) 
0

>  <i_i_glide_confnum>  (1) 
8

>  <i_i_glide_lignum>  (1) 
75

>  <i_i_glide_posenum>  (1) 
344

>  <i_i_glide_rotatable_bonds>  (1) 
2

>  <i_lp_mmshare_version>  (1) 
72125

>  <i_m_source_file_index>  (1) 
44

>  <i_f3d_flags>  (1) 
0

>  <num_sample>  (1) 
100

>  <b_lp_Chiralities_Consistent>  (1) 
1

>  <r_epik_Charging_Adjusted_Penalty>  (1) 
0.0083505281845598599

>  <r_epik_Ionization_Penalty>  (1) 
0.0096858193437649089

>  <r_epik_Ionization_Penalty_Charging>  (1) 
0

>  <r_epik_Ionization_Penalty_Neutral>  (1) 
0.0096858193437649089

>  <r_epik_State_Penalty>  (1) 
0.0083505281845598599

>  <r_glide_ring_energy>  (1) 
0.002520034235707866

>  <r_i_docking_score>  (1) 
-5.1117540574937701

>  <r_i_glide_ecoul>  (1) 
-1.5343691642489881

>  <r_i_glide_eff_state_penalty>  (1) 
0.0083505281845598599

>  <r_i_glide_einternal>  (1) 
4.0775589661264569

>  <r_i_glide_emodel>  (1) 
-32.724676236173643

>  <r_i_glide_emodel_strain>  (1) 
0.71035043650311991

>  <r_i_glide_energy>  (1) 
-27.794216712891789

>  <r_i_glide_erotb>  (1) 
0.55876719090136395

>  <r_i_glide_esite>  (1) 
-0.098309928649514114

>  <r_i_glide_evdw>  (1) 
-26.259847548642799

>  <r_i_glide_gscore>  (1) 
-5.1201045856783303

>  <r_i_glide_gscore_strain>  (1) 
0

>  <r_i_glide_hbond>  (1) 
0

>  <r_i_glide_ligand_efficiency>  (1) 
-0.28398633652743166

>  <r_i_glide_ligand_efficiency_ln>  (1) 
-1.3139500221588347

>  <r_i_glide_ligand_efficiency_sa>  (1) 
-0.74425474752717824

>  <r_i_glide_lipo>  (1) 
-1.7081100454512219

>  <r_i_glide_metal>  (1) 
-0

>  <r_i_glide_rewards>  (1) 
-2.32930405040947

>  <r_lp_Energy>  (1) 
4.2772959999999998

>  <s_epik_cmdline>  (1) 
J2VwaWtfcHl0aG9uJywgJy1waHQnLCAnMS4wJywgJy1waCcsICc3LjQnLCAnLXRuJywgJzgnLCAnLW1hJywgJzUwMCcsICctaW1hZScsICc8aW5maWxlLm1hZT4nLCAnLW9tYWUnLCAnPG91dGZpbGUubWFlPic=

>  <s_epik_input>  (1) 
W0NIMl0xW0NIMl1bQ0gyXVtDSDJdTjFjMltjSF1jKFtjSF1bY0hdW2NIXTIpTihbQ0gyXVtDQEBIXTNGKVtOSF1OM1tDSDNd

>  <s_glide_docking_method>  (1) 
confgen

>  <s_i_glide_gridfile>  (1) 
gpcr_drd2_6luq_protein_autoprepared_prepared

>  <s_lp_Force_Field>  (1) 
S-OPLS

>  <s_lp_Variant>  (1) 
DiffSBDD_43_num_sample_100-1

>  <s_m_source_file>  (1) 
generated__ligand_DiffSBDD_2026-05-06_prepared.sdf

>  <GenAI_Model>  (1) 
DiffSBDD

>  <Protein>  (1) 
generic_title2

$$$$
DiffSBDD_75_num_sample_100
     RDKit          3D

  0  0  0  0  0  0  0  0  0  0999 V3000
M  V30 BEGIN CTAB
M  V30 COUNTS 76 81 0 0 1
M  V30 BEGIN ATOM
M  V30 1 C 7.324834 3.145278 -13.628854 0
M  V30 2 C 7.516963 3.454232 -15.106158 0
M  V30 3 C 11.669660 4.574035 -17.139527 0
M  V30 4 C 15.336466 1.828200 -19.128134 0 CFG=2
M  V30 5 F 5.612033 7.076465 -18.769808 0
M  V30 6 C 6.361215 4.046253 -12.847066 0
M  V30 7 C 6.562071 5.779381 -14.677075 0 CFG=1
M  V30 8 N 7.936396 5.199512 -16.782221 0
M  V30 9 O 14.727143 7.287950 -17.946312 0 CHG=-1
M  V30 10 C 6.585607 5.563411 -13.121288 0 CFG=2
M  V30 11 C 10.272312 7.204177 -11.099477 0 CFG=1
M  V30 12 N 14.938334 6.131569 -18.299492 0 CHG=1
M  V30 13 C 12.968498 1.403500 -18.480597 0
M  V30 14 O 15.970598 5.751401 -18.844192 0
M  V30 15 C 6.463436 7.255701 -15.122424 0
M  V30 16 C 13.858417 5.128184 -18.036353 0
M  V30 17 C 9.066877 6.557313 -10.447412 0 CFG=1
M  V30 18 C 14.041287 1.113975 -19.525188 0
M  V30 19 C 8.906751 7.848809 -11.192317 0 CFG=2
M  V30 20 C 9.184363 5.213410 -17.344512 0
M  V30 21 N 15.147454 3.274463 -19.068608 0
M  V30 22 C 5.774767 7.499941 -16.485683 0
M  V30 23 N 7.816627 6.108658 -12.445025 0 CFG=2 CHG=1
M  V30 24 C 8.157745 5.545888 -11.110891 0
M  V30 25 C 11.408510 7.757281 -10.263035 0
M  V30 26 O 7.911576 2.213490 -13.091649 0
M  V30 27 C 6.740879 5.415955 -17.609228 0
M  V30 28 O 10.690816 6.569292 -12.291669 0
M  V30 29 C 6.442202 6.896138 -17.742572 0 CFG=1
M  V30 30 O 9.365571 5.417850 -18.545544 0
M  V30 31 O 16.937364 0.164541 -19.891638 0
M  V30 32 C 7.901398 7.587862 -12.291132 0
M  V30 33 C 12.906602 2.874943 -18.110783 0
M  V30 34 C 12.671574 5.530385 -17.388882 0
M  V30 35 N 11.773330 3.273285 -17.491681 0
M  V30 36 C 10.393533 4.968826 -16.414065 0
M  V30 37 C 16.499588 1.493415 -20.082292 0
M  V30 38 C 13.987400 3.751431 -18.412492 0
M  V30 39 C 7.717025 4.963936 -15.337294 0 CFG=2
M  V30 40 H 6.637480 3.100396 -15.644180 0
M  V30 41 H 8.363576 2.881957 -15.484072 0
M  V30 42 H 15.618901 1.507694 -18.124347 0
M  V30 43 H 5.352778 3.776607 -13.161951 0
M  V30 44 H 6.407535 3.805652 -11.785450 0
M  V30 45 H 5.619048 5.335143 -14.998897 0
M  V30 46 H 5.729727 6.080881 -12.683891 0
M  V30 47 H 13.175500 0.840284 -17.569891 0
M  V30 48 H 11.994752 1.070696 -18.842059 0
M  V30 49 H 7.434839 7.735866 -15.091669 0
M  V30 50 H 5.854570 7.769294 -14.380736 0
M  V30 51 H 9.034807 6.578820 -9.359324 0
M  V30 52 H 13.711225 1.470674 -20.502380 0
M  V30 53 H 14.187242 0.037065 -19.614633 0
M  V30 54 H 8.752924 8.764088 -10.624118 0
M  V30 55 H 15.952992 3.882798 -19.166481 0
M  V30 56 H 5.673500 8.575225 -16.635046 0
M  V30 57 H 4.752913 7.123158 -16.423252 0
M  V30 58 H 7.261200 5.442508 -10.497005 0
M  V30 59 H 8.652101 4.576837 -11.185845 0
M  V30 60 H 11.045234 8.538233 -9.594049 0
M  V30 61 H 11.842903 6.969292 -9.650638 0
M  V30 62 H 12.196599 8.169364 -10.890884 0
M  V30 63 H 6.872509 4.961799 -18.593408 0
M  V30 64 H 5.851442 4.969303 -17.194968 0
M  V30 65 H 11.409487 7.058208 -12.664445 0
M  V30 66 H 7.373327 7.369299 -18.026115 0
M  V30 67 H 16.234840 -0.429041 -20.113139 0
M  V30 68 H 8.233784 8.097569 -13.188383 0
M  V30 69 H 6.938032 7.998465 -11.984007 0
M  V30 70 H 12.534801 6.556884 -17.081415 0
M  V30 71 H 10.189873 4.169299 -15.709978 0
M  V30 72 H 10.584965 5.868671 -15.831867 0
M  V30 73 H 17.352221 2.146416 -19.891697 0
M  V30 74 H 16.212426 1.644104 -21.123920 0
M  V30 75 H 8.597069 5.287145 -14.787263 0
M  V30 76 H 8.619554 5.861807 -13.007529 0
M  V30 END ATOM
M  V30 BEGIN BOND
M  V30 1 1 2 1
M  V30 2 1 6 1
M  V30 3 1 10 6
M  V30 4 1 10 7
M  V30 5 1 12 9
M  V30 6 2 14 12
M  V30 7 1 15 7
M  V30 8 1 16 12
M  V30 9 1 17 11
M  V30 10 1 18 4
M  V30 11 1 18 13
M  V30 12 1 19 11
M  V30 13 1 19 17
M  V30 14 1 20 8
M  V30 15 1 21 4
M  V30 16 1 22 15
M  V30 17 1 23 10
M  V30 18 1 24 17
M  V30 19 1 24 23
M  V30 20 1 25 11
M  V30 21 2 26 1
M  V30 22 1 27 8
M  V30 23 1 11 28 CFG=3
M  V30 24 1 29 5
M  V30 25 1 29 22
M  V30 26 1 29 27
M  V30 27 2 30 20
M  V30 28 1 32 19
M  V30 29 1 32 23
M  V30 30 1 33 13
M  V30 31 2 34 3
M  V30 32 1 34 16
M  V30 33 1 35 3
M  V30 34 2 35 33
M  V30 35 1 36 3
M  V30 36 1 36 20
M  V30 37 1 37 4
M  V30 38 1 37 31
M  V30 39 2 38 16
M  V30 40 1 38 21
M  V30 41 1 38 33
M  V30 42 1 39 2
M  V30 43 1 39 7
M  V30 44 1 39 8
M  V30 45 1 40 2
M  V30 46 1 41 2
M  V30 47 1 4 42 CFG=1
M  V30 48 1 43 6
M  V30 49 1 44 6
M  V30 50 1 7 45 CFG=3
M  V30 51 1 10 46 CFG=1
M  V30 52 1 47 13
M  V30 53 1 48 13
M  V30 54 1 49 15
M  V30 55 1 50 15
M  V30 56 1 17 51 CFG=1
M  V30 57 1 52 18
M  V30 58 1 53 18
M  V30 59 1 19 54 CFG=1
M  V30 60 1 55 21
M  V30 61 1 56 22
M  V30 62 1 57 22
M  V30 63 1 58 24
M  V30 64 1 59 24
M  V30 65 1 60 25
M  V30 66 1 61 25
M  V30 67 1 62 25
M  V30 68 1 63 27
M  V30 69 1 64 27
M  V30 70 1 65 28
M  V30 71 1 29 66 CFG=3
M  V30 72 1 67 31
M  V30 73 1 68 32
M  V30 74 1 69 32
M  V30 75 1 70 34
M  V30 76 1 71 36
M  V30 77 1 72 36
M  V30 78 1 73 37
M  V30 79 1 74 37
M  V30 80 1 39 75 CFG=1
M  V30 81 1 23 76 CFG=3
M  V30 END BOND
M  V30 END CTAB
M  END
>  <i_epik_Tot_Q>  (1) 
1

>  <i_epik_Tot_abs_Q>  (1) 
3

>  <i_i_glide_confnum>  (1) 
179

>  <i_i_glide_lignum>  (1) 
150

>  <i_i_glide_posenum>  (1) 
397

>  <i_i_glide_rotatable_bonds>  (1) 
8

>  <i_lp_mmshare_version>  (1) 
72125

>  <i_m_source_file_index>  (1) 
76

>  <i_f3d_flags>  (1) 
0

>  <num_sample>  (1) 
100

>  <b_lp_Chiralities_Consistent>  (1) 
1

>  <r_epik_Charging_Adjusted_Penalty>  (1) 
0.015891369841317948

>  <r_epik_Ionization_Penalty>  (1) 
0.0079711574059170582

>  <r_epik_Ionization_Penalty_Charging>  (1) 
0.0079456849206589655

>  <r_epik_Ionization_Penalty_Neutral>  (1) 
2.5472485258093083e-05

>  <r_epik_State_Penalty>  (1) 
0.0079456849206589828

>  <r_glide_ring_energy>  (1) 
0

>  <r_i_docking_score>  (1) 
-5.1082795702632078

>  <r_i_glide_ecoul>  (1) 
-1.6140993192181337

>  <r_i_glide_eff_state_penalty>  (1) 
0.0079456849206589828

>  <r_i_glide_einternal>  (1) 
3.2105536006277582

>  <r_i_glide_emodel>  (1) 
-50.241712432012754

>  <r_i_glide_emodel_strain>  (1) 
0.58832531337561988

>  <r_i_glide_energy>  (1) 
-39.171272199028742

>  <r_i_glide_erotb>  (1) 
0.34657339541443727

>  <r_i_glide_esite>  (1) 
-0.030588925630695315

>  <r_i_glide_evdw>  (1) 
-37.557172879810608

>  <r_i_glide_gscore>  (1) 
-5.1162252551838669

>  <r_i_glide_gscore_strain>  (1) 
0

>  <r_i_glide_hbond>  (1) 
0

>  <r_i_glide_ligand_efficiency>  (1) 
-0.13098152744264635

>  <r_i_glide_ligand_efficiency_ln>  (1) 
-1.0953601470032328

>  <r_i_glide_ligand_efficiency_sa>  (1) 
-0.44418605468697647

>  <r_i_glide_lipo>  (1) 
-2.041967074747959

>  <r_i_glide_metal>  (1) 
-0

>  <r_i_glide_rewards>  (1) 
-1.2702691083463988

>  <r_lp_Energy>  (1) 
47.04589

>  <r_lp_tautomer_probability>  (1) 
0.99999997999999912

>  <s_epik_cmdline>  (1) 
J2VwaWtfcHl0aG9uJywgJy1waHQnLCAnMS4wJywgJy1waCcsICc3LjQnLCAnLXRuJywgJzgnLCAnLW1hJywgJzUwMCcsICctaW1hZScsICc8aW5maWxlLm1hZT4nLCAnLW9tYWUnLCAnPG91dGZpbGUubWFlPic=

>  <s_epik_input>  (1) 
W0NIM11bQ0BdMShbT0hdKVtDQEhdKFtDQEhdMTIpW0NIMl1OKFtDSDJdMilbQ0BASF0zW0NIMl1DKD1PKVtDSDJdW0NASF0oW0NAQEhdMzQpTihbQ0gyXVtDQEBIXShGKVtDSDJdW0NIMl00KUMoPU8pW0NIMl1jKG41KVtjSF1jKFtOK10oW08tXSk9TyljKGM1NilbTkhdW0NAQEhdKFtDSDJdW0NIMl02KVtDSDJdW09IXQ==

>  <s_glide_docking_method>  (1) 
confgen

>  <s_i_glide_gridfile>  (1) 
gpcr_drd2_6luq_protein_autoprepared_prepared

>  <s_lp_Force_Field>  (1) 
S-OPLS

>  <s_lp_Variant>  (1) 
DiffSBDD_75_num_sample_100-1

>  <s_m_source_file>  (1) 
generated__ligand_DiffSBDD_2026-05-06_prepared.sdf

>  <GenAI_Model>  (1) 
DiffSBDD

>  <Protein>  (1) 
generic_title2

$$$$
DiffSBDD_61_num_sample_100
     RDKit          3D

  0  0  0  0  0  0  0  0  0  0999 V3000
M  V30 BEGIN CTAB
M  V30 COUNTS 51 53 0 0 1
M  V30 BEGIN ATOM
M  V30 1 N 11.434838 7.834270 -5.445243 0
M  V30 2 C 7.137988 5.956428 -14.913295 0
M  V30 3 C 6.894258 6.240755 -13.401661 0 CFG=1
M  V30 4 O 12.489460 7.448733 -2.019638 0
M  V30 5 C 12.320140 8.817397 -2.114482 0
M  V30 6 O 5.687428 6.969303 -13.257321 0
M  V30 7 C 9.718917 6.552590 -9.988391 0
M  V30 8 O 5.834838 3.769356 -10.689967 0
M  V30 9 C 10.243266 7.528299 -8.924655 0
M  V30 10 C 9.233867 6.245319 -12.511929 0 CFG=1
M  V30 11 C 11.467359 6.512425 -6.073445 0
M  V30 12 C 6.886372 4.934819 -12.555355 0 CFG=2
M  V30 13 C 6.015455 5.032271 -11.281408 0
M  V30 14 C 10.117621 6.169407 -6.718826 0
M  V30 15 C 8.004517 7.119467 -12.810477 0
M  V30 16 C 9.544935 7.312995 -7.561659 0
M  V30 17 O 6.538396 6.684823 -15.737713 0 CHG=-1
M  V30 18 C 10.851647 8.984062 -6.134874 0
M  V30 19 C 10.150537 6.871854 -11.433158 0
M  V30 20 C 9.479298 8.583734 -6.710290 0
M  V30 21 C 12.176416 6.950382 -3.256519 0
M  V30 22 C 11.834838 7.967284 -4.090578 0
M  V30 23 C 11.920256 9.175157 -3.373542 0
M  V30 24 S 8.619572 4.581774 -12.092190 0
M  V30 25 O 7.919583 5.023463 -15.202546 0
M  V30 26 H 12.523945 9.369303 -1.208599 0
M  V30 27 H 5.612450 7.249300 -12.358802 0
M  V30 28 H 8.634838 6.569305 -9.953038 0
M  V30 29 H 9.991305 5.532196 -9.722942 0
M  V30 30 H 5.535453 3.918257 -9.800217 0
M  V30 31 H 11.326672 7.453964 -8.831395 0
M  V30 32 H 10.036377 8.541737 -9.270457 0
M  V30 33 H 9.802333 6.131765 -13.434635 0
M  V30 34 H 11.758418 5.714744 -5.396811 0
M  V30 35 H 12.234634 6.537423 -6.846942 0
M  V30 36 H 6.510713 4.103112 -13.153614 0
M  V30 37 H 5.015530 5.402106 -11.494186 0
M  V30 38 H 6.457939 5.716262 -10.556631 0
M  V30 39 H 9.401638 5.937999 -5.930753 0
M  V30 40 H 10.204826 5.285286 -7.343813 0
M  V30 41 H 7.652285 7.567872 -11.880363 0
M  V30 42 H 8.234839 7.954099 -13.470155 0
M  V30 43 H 8.516875 7.035897 -7.773390 0
M  V30 44 H 10.718246 9.858391 -5.502984 0
M  V30 45 H 11.523614 9.280879 -6.940400 0
M  V30 46 H 11.183727 6.569301 -11.589236 0
M  V30 47 H 10.152861 7.952419 -11.579712 0
M  V30 48 H 9.046534 9.369302 -7.320508 0
M  V30 49 H 8.777549 8.425946 -5.891667 0
M  V30 50 H 12.234834 5.877152 -3.353712 0
M  V30 51 H 11.715115 10.169301 -3.716605 0
M  V30 END ATOM
M  V30 BEGIN BOND
M  V30 1 1 3 2
M  V30 2 1 5 4
M  V30 3 1 3 6 CFG=3
M  V30 4 1 9 7
M  V30 5 1 11 1
M  V30 6 1 12 3
M  V30 7 1 13 8
M  V30 8 1 13 12
M  V30 9 1 14 11
M  V30 10 1 15 3
M  V30 11 1 15 10
M  V30 12 1 16 9
M  V30 13 1 16 14
M  V30 14 1 17 2
M  V30 15 1 18 1
M  V30 16 1 19 7
M  V30 17 1 19 10
M  V30 18 1 20 16
M  V30 19 1 20 18
M  V30 20 1 21 4
M  V30 21 1 22 1
M  V30 22 2 22 21
M  V30 23 2 23 5
M  V30 24 1 23 22
M  V30 25 1 24 10
M  V30 26 1 24 12
M  V30 27 2 25 2
M  V30 28 1 26 5
M  V30 29 1 27 6
M  V30 30 1 28 7
M  V30 31 1 29 7
M  V30 32 1 30 8
M  V30 33 1 31 9
M  V30 34 1 32 9
M  V30 35 1 10 33 CFG=3
M  V30 36 1 34 11
M  V30 37 1 35 11
M  V30 38 1 12 36 CFG=3
M  V30 39 1 37 13
M  V30 40 1 38 13
M  V30 41 1 39 14
M  V30 42 1 40 14
M  V30 43 1 41 15
M  V30 44 1 42 15
M  V30 45 1 43 16
M  V30 46 1 44 18
M  V30 47 1 45 18
M  V30 48 1 46 19
M  V30 49 1 47 19
M  V30 50 1 48 20
M  V30 51 1 49 20
M  V30 52 1 50 21
M  V30 53 1 51 23
M  V30 END BOND
M  V30 END CTAB
M  END
>  <i_epik_Tot_Q>  (1) 
-1

>  <i_epik_Tot_abs_Q>  (1) 
1

>  <i_i_glide_confnum>  (1) 
527

>  <i_i_glide_lignum>  (1) 
123

>  <i_i_glide_posenum>  (1) 
12

>  <i_i_glide_rotatable_bonds>  (1) 
9

>  <i_lp_mmshare_version>  (1) 
72125

>  <i_m_source_file_index>  (1) 
62

>  <i_f3d_flags>  (1) 
0

>  <num_sample>  (1) 
100

>  <b_lp_Chiralities_Consistent>  (1) 
1

>  <r_epik_Charging_Adjusted_Penalty>  (1) 
0.8774089377882176

>  <r_epik_Ionization_Penalty>  (1) 
0.8774093123040011

>  <r_epik_Ionization_Penalty_Charging>  (1) 
6.4905039586267643e-05

>  <r_epik_Ionization_Penalty_Neutral>  (1) 
0.87734440726441487

>  <r_epik_State_Penalty>  (1) 
0.87734403274863138

>  <r_glide_ring_energy>  (1) 
1.9749227705652572

>  <r_i_docking_score>  (1) 
-5.1027486633578052

>  <r_i_glide_ecoul>  (1) 
-3.9556434302329104

>  <r_i_glide_eff_state_penalty>  (1) 
0.87734403274863138

>  <r_i_glide_einternal>  (1) 
4.7551440749910423

>  <r_i_glide_emodel>  (1) 
-43.54552372887477

>  <r_i_glide_emodel_strain>  (1) 
4.2831002809690375

>  <r_i_glide_energy>  (1) 
-38.710801626808987

>  <r_i_glide_erotb>  (1) 
0.85157240902219222

>  <r_i_glide_esite>  (1) 
0

>  <r_i_glide_evdw>  (1) 
-34.755158196576076

>  <r_i_glide_gscore>  (1) 
-5.9800926961064365

>  <r_i_glide_gscore_strain>  (1) 
0.070775070242259375

>  <r_i_glide_hbond>  (1) 
-0.32000000000000001

>  <r_i_glide_ligand_efficiency>  (1) 
-0.20410994653431222

>  <r_i_glide_ligand_efficiency_ln>  (1) 
-1.2095043502535932

>  <r_i_glide_ligand_efficiency_sa>  (1) 
-0.59682110421200862

>  <r_i_glide_lipo>  (1) 
-2.110247963035329

>  <r_i_glide_metal>  (1) 
-0

>  <r_i_glide_rewards>  (1) 
-2.1410877879718186

>  <r_lp_Energy>  (1) 
22.683494

>  <r_lp_tautomer_probability>  (1) 
1

>  <s_epik_cmdline>  (1) 
J2VwaWtfcHl0aG9uJywgJy1waHQnLCAnMS4wJywgJy1waCcsICc3LjQnLCAnLXRuJywgJzgnLCAnLW1hJywgJzUwMCcsICctaW1hZScsICc8aW5maWxlLm1hZT4nLCAnLW9tYWUnLCAnPG91dGZpbGUubWFlPic=

>  <s_epik_input>  (1) 
W2NIXTFbY0hdb1tjSF1jMU4yW0NIMl1bQ0gyXVtDSF0oW0NIMl1bQ0gyXTIpW0NIMl1bQ0gyXVtDSDJdW0NASF0oW0NIMl0zKVNbQ0BASF0oW0NIMl1bT0hdKVtDQF0zKFtPSF0pQyg9TylbT0hd

>  <s_glide_docking_method>  (1) 
confgen

>  <s_i_glide_gridfile>  (1) 
gpcr_drd2_6luq_protein_autoprepared_prepared

>  <s_lp_Force_Field>  (1) 
S-OPLS

>  <s_lp_Variant>  (1) 
DiffSBDD_61_num_sample_100-3

>  <s_m_source_file>  (1) 
generated__ligand_DiffSBDD_2026-05-06_prepared.sdf

>  <GenAI_Model>  (1) 
DiffSBDD

>  <Protein>  (1) 
generic_title2

$$$$
DiffSBDD_87_num_sample_100
     RDKit          3D

  0  0  0  0  0  0  0  0  0  0999 V3000
M  V30 BEGIN CTAB
M  V30 COUNTS 51 54 0 0 1
M  V30 BEGIN ATOM
M  V30 1 C 5.615434 7.525109 -20.272950 0
M  V30 2 C 7.931043 6.733376 -19.535715 0
M  V30 3 C 5.297318 6.656310 -17.937907 0
M  V30 4 C 5.623885 6.871980 -12.768717 0
M  V30 5 C 10.176590 7.316713 -8.075863 0
M  V30 6 S 6.104342 5.369295 -15.031583 0
M  V30 7 C 10.176436 7.288262 -9.482798 0
M  V30 8 C 7.682715 7.294230 -13.898918 0
M  V30 9 C 6.951003 7.463664 -20.394967 0
M  V30 10 C 8.693426 5.340886 -9.444636 0
M  V30 11 C 7.638706 4.246294 -19.614887 0
M  V30 12 O 7.860882 8.569272 -11.891667 0
M  V30 13 S 9.426165 6.261763 -11.935522 0
M  V30 14 C 9.434837 6.356588 -7.352790 0
M  V30 15 C 8.691639 5.369300 -8.040677 0
M  V30 16 O 5.139864 8.294706 -21.274665 0
M  V30 17 N 6.262877 8.728037 -22.029470 0
M  V30 18 C 4.653139 6.937287 -19.303961 0
M  V30 19 C 7.332202 5.423426 -19.041872 0
M  V30 20 C 9.434836 6.297344 -10.152944 0
M  V30 21 N 6.733646 6.569309 -11.891667 0
M  V30 22 O 9.211478 4.867355 -12.353721 0
M  V30 23 N 7.344338 8.213251 -21.489730 0
M  V30 24 O 10.636570 6.969304 -12.376749 0
M  V30 25 C 6.353774 5.518728 -17.862437 0 CFG=1
M  V30 26 F 10.886333 8.263623 -7.416573 0
M  V30 27 C 6.235187 6.944861 -14.162076 0 CFG=2
M  V30 28 C 7.911343 7.249885 -12.390608 0 CFG=2
M  V30 29 C 7.113990 5.588257 -16.528643 0
M  V30 30 H 8.239800 7.346606 -18.691659 0
M  V30 31 H 8.839339 6.519910 -20.100573 0
M  V30 32 H 4.498340 6.421884 -17.233685 0
M  V30 33 H 5.734183 7.588206 -17.574935 0
M  V30 34 H 4.891844 6.078959 -12.680169 0
M  V30 35 H 5.169262 7.820027 -12.480261 0
M  V30 36 H 10.738788 8.021318 -10.041638 0
M  V30 37 H 7.834839 8.284260 -14.316512 0
M  V30 38 H 8.334809 6.569308 -14.382652 0
M  V30 39 H 8.125184 4.589573 -9.974415 0
M  V30 40 H 8.325709 4.194295 -20.446633 0
M  V30 41 H 7.206217 3.322380 -19.258629 0
M  V30 42 H 7.491988 8.535555 -11.007511 0
M  V30 43 H 9.431531 6.378603 -6.272801 0
M  V30 44 H 8.119349 4.639637 -7.491665 0
M  V30 45 H 3.834842 7.640265 -19.155824 0
M  V30 46 H 4.234838 6.017790 -19.713216 0
M  V30 47 H 6.562420 6.821332 -10.916261 0
M  V30 48 H 5.833216 4.569302 -17.891677 0
M  V30 49 H 5.740930 7.710654 -14.761454 0
M  V30 50 H 7.537811 6.569304 -16.463478 0
M  V30 51 H 7.931291 4.866743 -16.501993 0
M  V30 END ATOM
M  V30 BEGIN BOND
M  V30 1 2 7 5
M  V30 2 2 9 1
M  V30 3 1 9 2
M  V30 4 1 14 5
M  V30 5 1 15 10
M  V30 6 2 15 14
M  V30 7 1 16 1
M  V30 8 1 17 16
M  V30 9 1 18 1
M  V30 10 1 18 3
M  V30 11 1 19 2
M  V30 12 2 19 11
M  V30 13 1 20 7
M  V30 14 2 20 10
M  V30 15 1 20 13
M  V30 16 1 21 4
M  V30 17 2 22 13
M  V30 18 1 23 9
M  V30 19 2 23 17
M  V30 20 2 24 13
M  V30 21 1 25 3
M  V30 22 1 25 19
M  V30 23 1 26 5
M  V30 24 1 27 4
M  V30 25 1 27 6
M  V30 26 1 27 8
M  V30 27 1 28 8
M  V30 28 1 28 12 CFG=1
M  V30 29 1 28 13
M  V30 30 1 28 21
M  V30 31 1 29 6
M  V30 32 1 29 25
M  V30 33 1 30 2
M  V30 34 1 31 2
M  V30 35 1 32 3
M  V30 36 1 33 3
M  V30 37 1 34 4
M  V30 38 1 35 4
M  V30 39 1 36 7
M  V30 40 1 37 8
M  V30 41 1 38 8
M  V30 42 1 39 10
M  V30 43 1 40 11
M  V30 44 1 41 11
M  V30 45 1 42 12
M  V30 46 1 43 14
M  V30 47 1 44 15
M  V30 48 1 45 18
M  V30 49 1 46 18
M  V30 50 1 47 21
M  V30 51 1 25 48 CFG=1
M  V30 52 1 27 49 CFG=3
M  V30 53 1 50 29
M  V30 54 1 51 29
M  V30 END BOND
M  V30 END CTAB
M  END
>  <i_epik_Tot_Q>  (1) 
0

>  <i_epik_Tot_abs_Q>  (1) 
0

>  <i_i_glide_confnum>  (1) 
237

>  <i_i_glide_lignum>  (1) 
177

>  <i_i_glide_posenum>  (1) 
69

>  <i_i_glide_rotatable_bonds>  (1) 
6

>  <i_lp_mmshare_version>  (1) 
72125

>  <i_m_source_file_index>  (1) 
88

>  <i_f3d_flags>  (1) 
0

>  <num_sample>  (1) 
100

>  <b_lp_Chiralities_Consistent>  (1) 
1

>  <r_epik_Charging_Adjusted_Penalty>  (1) 
0

>  <r_epik_Ionization_Penalty>  (1) 
0.0001098004903757838

>  <r_epik_Ionization_Penalty_Charging>  (1) 
0

>  <r_epik_Ionization_Penalty_Neutral>  (1) 
0.0001098004903757838

>  <r_epik_State_Penalty>  (1) 
-0

>  <r_glide_ring_energy>  (1) 
0.13793408514299585

>  <r_i_docking_score>  (1) 
-5.1012183401362101

>  <r_i_glide_ecoul>  (1) 
-7.268230670338534

>  <r_i_glide_eff_state_penalty>  (1) 
-0

>  <r_i_glide_einternal>  (1) 
12.331640080751866

>  <r_i_glide_emodel>  (1) 
-40.777464381116779

>  <r_i_glide_emodel_strain>  (1) 
1.1661109370230207

>  <r_i_glide_energy>  (1) 
-37.056952452206822

>  <r_i_glide_erotb>  (1) 
0.51657056341793117

>  <r_i_glide_esite>  (1) 
-0.061138457345850952

>  <r_i_glide_evdw>  (1) 
-29.788721781868286

>  <r_i_glide_gscore>  (1) 
-5.1012183401362101

>  <r_i_glide_gscore_strain>  (1) 
0

>  <r_i_glide_hbond>  (1) 
-0.30399999999999999

>  <r_i_glide_ligand_efficiency>  (1) 
-0.17590408069435207

>  <r_i_glide_ligand_efficiency_ln>  (1) 
-1.1680496441552044

>  <r_i_glide_ligand_efficiency_sa>  (1) 
-0.54043306682405901

>  <r_i_glide_lipo>  (1) 
-1.4487739986978736

>  <r_i_glide_metal>  (1) 
-0

>  <r_i_glide_rewards>  (1) 
-1.2242057578662211

>  <r_lp_Energy>  (1) 
18.696739000000001

>  <r_lp_tautomer_probability>  (1) 
1

>  <s_epik_cmdline>  (1) 
J2VwaWtfcHl0aG9uJywgJy1waHQnLCAnMS4wJywgJy1waCcsICc3LjQnLCAnLXRuJywgJzgnLCAnLW1hJywgJzUwMCcsICctaW1hZScsICc8aW5maWxlLm1hZT4nLCAnLW9tYWUnLCAnPG91dGZpbGUubWFlPic=

>  <s_epik_input>  (1) 
bzFubmMoYzEyKVtDSDJdQyg9W0NIMl0pW0NASF0oW0NIMl1bQ0gyXTIpW0NIMl1TW0NAQEhdKFtDSDJdW05IXTMpW0NIMl1bQ0BdMyhbT0hdKVMoPU8pKD1PKWMoW2NIXWM0RilbY0hdW2NIXVtjSF00

>  <s_glide_docking_method>  (1) 
confgen

>  <s_i_glide_gridfile>  (1) 
gpcr_drd2_6luq_protein_autoprepared_prepared

>  <s_lp_Force_Field>  (1) 
S-OPLS

>  <s_lp_Variant>  (1) 
DiffSBDD_87_num_sample_100-1

>  <s_m_source_file>  (1) 
generated__ligand_DiffSBDD_2026-05-06_prepared.sdf

>  <GenAI_Model>  (1) 
DiffSBDD

>  <Protein>  (1) 
generic_title2

$$$$
DiffSBDD_63_num_sample_100
     RDKit          3D

  0  0  0  0  0  0  0  0  0  0999 V3000
M  V30 BEGIN CTAB
M  V30 COUNTS 56 56 0 0 1
M  V30 BEGIN ATOM
M  V30 1 C 6.319328 8.330369 -15.891892 0
M  V30 2 C 10.198530 6.425147 -7.691811 0
M  V30 3 C 11.957914 7.938133 -9.628339 0
M  V30 4 C 8.312353 5.069876 -10.567549 0
M  V30 5 C 8.921917 3.992881 -16.828187 0
M  V30 6 C 9.834741 6.658191 -9.144277 0
M  V30 7 C 10.446723 7.724994 -6.895914 0 CFG=1
M  V30 8 C 7.724501 4.949758 -16.638610 0
M  V30 9 C 7.146383 5.092604 -15.223761 0
M  V30 10 C 4.949785 6.822689 -17.344059 0
M  V30 11 C 12.459220 8.479299 -8.294191 0
M  V30 12 C 7.689006 4.460254 -14.157217 0
M  V30 13 C 3.442058 6.939264 -17.111869 0
M  V30 14 C 8.546942 2.502203 -16.774303 0
M  V30 15 C 10.439121 7.873179 -9.816695 0
M  V30 16 N 8.048510 5.315870 -11.897729 0
M  V30 17 O 10.235033 7.462221 -5.509763 0
M  V30 18 C 5.912059 5.994187 -15.090095 0
M  V30 19 C 5.766263 7.127768 -16.096887 0
M  V30 20 C 11.802812 8.396566 -7.114293 0
M  V30 21 C 7.156260 4.547710 -12.739198 0
M  V30 22 C 11.171780 6.630355 -4.836329 0
M  V30 23 C 9.053400 5.830893 -9.800994 0
M  V30 24 H 6.898030 8.532948 -15.004175 0
M  V30 25 H 6.200280 9.127008 -16.610568 0
M  V30 26 H 9.384780 5.868898 -7.222207 0
M  V30 27 H 11.074018 5.778426 -7.649179 0
M  V30 28 H 12.418058 6.974678 -9.845264 0
M  V30 29 H 12.346692 8.624855 -10.380275 0
M  V30 30 H 7.842496 4.169389 -10.202292 0
M  V30 31 H 9.718252 4.219175 -16.118411 0
M  V30 32 H 9.353280 4.186689 -17.810662 0
M  V30 33 H 9.676106 8.454304 -7.148569 0
M  V30 34 H 8.024306 5.937157 -16.985349 0
M  V30 35 H 6.930579 4.618502 -17.305245 0
M  V30 36 H 5.184439 5.833011 -17.729157 0
M  V30 37 H 5.234125 7.524478 -18.128999 0
M  V30 38 H 13.420847 8.969038 -8.320131 0
M  V30 39 H 8.560392 3.841361 -14.290715 0
M  V30 40 H 2.918209 6.835351 -18.059361 0
M  V30 41 H 3.174859 7.909373 -16.691560 0
M  V30 42 H 3.076564 6.161766 -16.443314 0
M  V30 43 H 9.423495 1.876994 -16.945185 0
M  V30 44 H 7.813579 2.254919 -17.542082 0
M  V30 45 H 8.122810 2.214378 -15.813059 0
M  V30 46 H 9.960086 8.781339 -9.449305 0
M  V30 47 H 10.216259 7.838607 -10.884809 0
M  V30 48 H 8.254116 6.248794 -12.225798 0
M  V30 49 H 5.034839 5.369218 -15.125784 0
M  V30 50 H 5.904777 6.467510 -14.108918 0
M  V30 51 H 12.256198 8.830787 -6.236925 0
M  V30 52 H 7.079553 3.531498 -12.350383 0
M  V30 53 H 6.151006 4.961461 -12.685068 0
M  V30 54 H 10.727233 6.257610 -3.913167 0
M  V30 55 H 12.062742 7.191974 -4.562913 0
M  V30 56 H 11.474307 5.769451 -5.426149 0
M  V30 END ATOM
M  V30 BEGIN BOND
M  V30 1 1 6 2
M  V30 2 1 7 2
M  V30 3 1 8 5
M  V30 4 1 9 8
M  V30 5 1 11 3
M  V30 6 2 12 9
M  V30 7 1 13 10
M  V30 8 1 14 5
M  V30 9 1 15 3
M  V30 10 1 15 6
M  V30 11 1 16 4
M  V30 12 1 17 7
M  V30 13 1 18 9
M  V30 14 2 19 1
M  V30 15 1 19 10
M  V30 16 1 19 18
M  V30 17 1 20 7
M  V30 18 2 20 11
M  V30 19 1 21 12
M  V30 20 1 21 16
M  V30 21 1 22 17
M  V30 22 2 23 4
M  V30 23 2 23 6
M  V30 24 1 24 1
M  V30 25 1 25 1
M  V30 26 1 26 2
M  V30 27 1 27 2
M  V30 28 1 28 3
M  V30 29 1 29 3
M  V30 30 1 30 4
M  V30 31 1 31 5
M  V30 32 1 32 5
M  V30 33 1 7 33 CFG=3
M  V30 34 1 34 8
M  V30 35 1 35 8
M  V30 36 1 36 10
M  V30 37 1 37 10
M  V30 38 1 38 11
M  V30 39 1 39 12
M  V30 40 1 40 13
M  V30 41 1 41 13
M  V30 42 1 42 13
M  V30 43 1 43 14
M  V30 44 1 44 14
M  V30 45 1 45 14
M  V30 46 1 46 15
M  V30 47 1 47 15
M  V30 48 1 48 16
M  V30 49 1 49 18
M  V30 50 1 50 18
M  V30 51 1 51 20
M  V30 52 1 52 21
M  V30 53 1 53 21
M  V30 54 1 54 22
M  V30 55 1 55 22
M  V30 56 1 56 22
M  V30 END BOND
M  V30 END CTAB
M  END
>  <i_epik_Tot_Q>  (1) 
0

>  <i_epik_Tot_abs_Q>  (1) 
0

>  <i_i_glide_confnum>  (1) 
393

>  <i_i_glide_lignum>  (1) 
126

>  <i_i_glide_posenum>  (1) 
352

>  <i_i_glide_rotatable_bonds>  (1) 
9

>  <i_lp_mmshare_version>  (1) 
72125

>  <i_m_source_file_index>  (1) 
64

>  <i_f3d_flags>  (1) 
0

>  <num_sample>  (1) 
100

>  <b_lp_Chiralities_Consistent>  (1) 
1

>  <r_epik_Charging_Adjusted_Penalty>  (1) 
0

>  <r_epik_Ionization_Penalty>  (1) 
2.3151810028890752e-06

>  <r_epik_Ionization_Penalty_Charging>  (1) 
0

>  <r_epik_Ionization_Penalty_Neutral>  (1) 
2.3151810028890752e-06

>  <r_epik_State_Penalty>  (1) 
-0

>  <r_glide_ring_energy>  (1) 
0

>  <r_i_docking_score>  (1) 
-5.0897064649379198

>  <r_i_glide_ecoul>  (1) 
0.55135939970205139

>  <r_i_glide_eff_state_penalty>  (1) 
-0

>  <r_i_glide_einternal>  (1) 
7.8893230535323973

>  <r_i_glide_emodel>  (1) 
-35.524496696773951

>  <r_i_glide_emodel_strain>  (1) 
0.59356648816459767

>  <r_i_glide_energy>  (1) 
-30.246903931741215

>  <r_i_glide_erotb>  (1) 
1.3082352225513891

>  <r_i_glide_esite>  (1) 
-0.0094422040338818913

>  <r_i_glide_evdw>  (1) 
-30.798263331443266

>  <r_i_glide_gscore>  (1) 
-5.0897064649379198

>  <r_i_glide_gscore_strain>  (1) 
0

>  <r_i_glide_hbond>  (1) 
0

>  <r_i_glide_ligand_efficiency>  (1) 
-0.22129158543208347

>  <r_i_glide_ligand_efficiency_ln>  (1) 
-1.2307371741286262

>  <r_i_glide_ligand_efficiency_sa>  (1) 
-0.62932383272930392

>  <r_i_glide_lipo>  (1) 
-2.9090172452432821

>  <r_i_glide_metal>  (1) 
-0

>  <r_i_glide_rewards>  (1) 
-2.0222729815952882

>  <r_lp_Energy>  (1) 
-11.675697

>  <r_lp_tautomer_probability>  (1) 
1

>  <s_epik_cmdline>  (1) 
J2VwaWtfcHl0aG9uJywgJy1waHQnLCAnMS4wJywgJy1waCcsICc3LjQnLCAnLXRuJywgJzgnLCAnLW1hJywgJzUwMCcsICctaW1hZScsICc8aW5maWxlLm1hZT4nLCAnLW9tYWUnLCAnPG91dGZpbGUubWFlPic=

>  <s_epik_input>  (1) 
W0NIM11bQ0gyXUMoPVtDSDJdKVtDSDJdQyhcW0NIMl1bQ0gyXVtDSDNdKT1bQ0hdL1tDSDJdW05IXVtDSF09Qz1DMVtDSDJdW0NAQEhdKE9bQ0gzXSlbQ0hdPVtDSF1bQ0gyXVtDSDJdMQ==

>  <s_glide_docking_method>  (1) 
confgen

>  <s_i_glide_gridfile>  (1) 
gpcr_drd2_6luq_protein_autoprepared_prepared

>  <s_lp_Force_Field>  (1) 
S-OPLS

>  <s_lp_Variant>  (1) 
DiffSBDD_63_num_sample_100-2

>  <s_m_source_file>  (1) 
generated__ligand_DiffSBDD_2026-05-06_prepared.sdf

>  <GenAI_Model>  (1) 
DiffSBDD

>  <Protein>  (1) 
generic_title2

$$$$
DiffSBDD_87_num_sample_100
     RDKit          3D

  0  0  0  0  0  0  0  0  0  0999 V3000
M  V30 BEGIN CTAB
M  V30 COUNTS 51 54 0 0 1
M  V30 BEGIN ATOM
M  V30 1 C 6.025161 7.759237 -21.033408 0
M  V30 2 C 7.861169 6.743705 -19.563790 0
M  V30 3 C 4.830164 7.201852 -18.916253 0
M  V30 4 C 6.937738 4.193086 -13.416711 0
M  V30 5 C 10.234687 7.406954 -8.344576 0
M  V30 6 S 7.034740 5.076855 -16.055229 0
M  V30 7 C 9.834869 7.590674 -9.681196 0
M  V30 8 C 6.469970 6.523508 -13.754519 0
M  V30 9 C 7.310251 7.550681 -20.698081 0
M  V30 10 C 8.857300 5.346653 -9.699906 0
M  V30 11 C 7.085779 4.359204 -19.578429 0
M  V30 12 O 5.849200 6.820057 -11.492596 0
M  V30 13 S 8.634129 6.800023 -12.045394 0
M  V30 14 C 9.943166 6.194981 -7.683513 0
M  V30 15 C 9.255396 5.164427 -8.363554 0
M  V30 16 O 6.002312 8.544545 -22.130552 0
M  V30 17 N 7.354716 8.832687 -22.457760 0
M  V30 18 C 4.733152 7.308836 -20.448053 0
M  V30 19 C 6.894712 5.630996 -19.183661 0
M  V30 20 C 9.142962 6.559468 -10.345528 0
M  V30 21 N 6.684168 4.801252 -12.120387 0
M  V30 22 O 9.504158 5.926908 -12.846830 0
M  V30 23 N 8.127525 8.220156 -21.589870 0
M  V30 24 O 8.651686 8.248721 -12.299838 0
M  V30 25 C 5.686449 6.043108 -18.334820 0 CFG=1
M  V30 26 F 10.899051 8.391767 -7.693801 0
M  V30 27 C 6.296714 5.161178 -14.401451 0 CFG=2
M  V30 28 C 6.855302 6.239329 -12.295363 0 CFG=2
M  V30 29 C 6.070484 6.379004 -16.881266 0
M  V30 30 H 8.065671 7.368929 -18.692653 0
M  V30 31 H 8.816781 6.302778 -19.850256 0
M  V30 32 H 3.827622 7.107780 -18.504493 0
M  V30 33 H 5.197567 8.159700 -18.543797 0
M  V30 34 H 8.011980 4.112977 -13.580238 0
M  V30 35 H 6.517155 3.188989 -13.477011 0
M  V30 36 H 10.053265 8.516344 -10.190486 0
M  V30 37 H 5.554305 7.111025 -13.847360 0
M  V30 38 H 7.253362 7.097423 -14.251068 0
M  V30 39 H 8.334403 4.560460 -10.220001 0
M  V30 40 H 7.939938 4.085082 -20.180085 0
M  V30 41 H 6.390180 3.578855 -19.304488 0
M  V30 42 H 6.271717 7.328994 -10.790749 0
M  V30 43 H 10.248188 6.053527 -6.657134 0
M  V30 44 H 9.034945 4.236443 -7.859605 0
M  V30 45 H 3.948815 8.018437 -20.714713 0
M  V30 46 H 4.445734 6.347597 -20.876070 0
M  V30 47 H 5.718804 4.659452 -11.863349 0
M  V30 48 H 5.034893 5.169884 -18.297995 0
M  V30 49 H 5.230696 4.945123 -14.464897 0
M  V30 50 H 5.153499 6.547757 -16.316512 0
M  V30 51 H 6.632808 7.310352 -16.827354 0
M  V30 END ATOM
M  V30 BEGIN BOND
M  V30 1 2 7 5
M  V30 2 2 9 1
M  V30 3 1 9 2
M  V30 4 1 14 5
M  V30 5 1 15 10
M  V30 6 2 15 14
M  V30 7 1 16 1
M  V30 8 1 17 16
M  V30 9 1 18 1
M  V30 10 1 18 3
M  V30 11 1 19 2
M  V30 12 2 19 11
M  V30 13 1 20 7
M  V30 14 2 20 10
M  V30 15 1 20 13
M  V30 16 1 21 4
M  V30 17 2 22 13
M  V30 18 1 23 9
M  V30 19 2 23 17
M  V30 20 2 24 13
M  V30 21 1 25 3
M  V30 22 1 25 19
M  V30 23 1 26 5
M  V30 24 1 27 4
M  V30 25 1 27 6
M  V30 26 1 27 8
M  V30 27 1 28 8
M  V30 28 1 28 12 CFG=1
M  V30 29 1 28 13
M  V30 30 1 28 21
M  V30 31 1 29 6
M  V30 32 1 29 25
M  V30 33 1 30 2
M  V30 34 1 31 2
M  V30 35 1 32 3
M  V30 36 1 33 3
M  V30 37 1 34 4
M  V30 38 1 35 4
M  V30 39 1 36 7
M  V30 40 1 37 8
M  V30 41 1 38 8
M  V30 42 1 39 10
M  V30 43 1 40 11
M  V30 44 1 41 11
M  V30 45 1 42 12
M  V30 46 1 43 14
M  V30 47 1 44 15
M  V30 48 1 45 18
M  V30 49 1 46 18
M  V30 50 1 47 21
M  V30 51 1 25 48 CFG=1
M  V30 52 1 27 49 CFG=3
M  V30 53 1 50 29
M  V30 54 1 51 29
M  V30 END BOND
M  V30 END CTAB
M  END
>  <i_epik_Tot_Q>  (1) 
0

>  <i_epik_Tot_abs_Q>  (1) 
0

>  <i_i_glide_confnum>  (1) 
357

>  <i_i_glide_lignum>  (1) 
177

>  <i_i_glide_posenum>  (1) 
231

>  <i_i_glide_rotatable_bonds>  (1) 
6

>  <i_lp_mmshare_version>  (1) 
72125

>  <i_m_source_file_index>  (1) 
88

>  <i_f3d_flags>  (1) 
0

>  <num_sample>  (1) 
100

>  <b_lp_Chiralities_Consistent>  (1) 
1

>  <r_epik_Charging_Adjusted_Penalty>  (1) 
0

>  <r_epik_Ionization_Penalty>  (1) 
0.0001098004903757838

>  <r_epik_Ionization_Penalty_Charging>  (1) 
0

>  <r_epik_Ionization_Penalty_Neutral>  (1) 
0.0001098004903757838

>  <r_epik_State_Penalty>  (1) 
-0

>  <r_glide_ring_energy>  (1) 
1.2518719696164433

>  <r_i_docking_score>  (1) 
-5.0826170785014417

>  <r_i_glide_ecoul>  (1) 
-4.8331913481807964

>  <r_i_glide_eff_state_penalty>  (1) 
-0

>  <r_i_glide_einternal>  (1) 
8.6003837546235822

>  <r_i_glide_emodel>  (1) 
-41.68519169398585

>  <r_i_glide_emodel_strain>  (1) 
2.2793220508015324

>  <r_i_glide_energy>  (1) 
-37.252564731602057

>  <r_i_glide_erotb>  (1) 
0.51657056341793117

>  <r_i_glide_esite>  (1) 
-0.14131193509294726

>  <r_i_glide_evdw>  (1) 
-32.419373383421259

>  <r_i_glide_gscore>  (1) 
-5.0826170785014417

>  <r_i_glide_gscore_strain>  (1) 
0

>  <r_i_glide_hbond>  (1) 
-0.16

>  <r_i_glide_ligand_efficiency>  (1) 
-0.17526265787936007

>  <r_i_glide_ligand_efficiency_ln>  (1) 
-1.1637904269281394

>  <r_i_glide_ligand_efficiency_sa>  (1) 
-0.53846241271718021

>  <r_i_glide_lipo>  (1) 
-1.7070620565878727

>  <r_i_glide_metal>  (1) 
-0

>  <r_i_glide_rewards>  (1) 
-1.2448662788403704

>  <r_lp_Energy>  (1) 
18.696739000000001

>  <r_lp_tautomer_probability>  (1) 
1

>  <s_epik_cmdline>  (1) 
J2VwaWtfcHl0aG9uJywgJy1waHQnLCAnMS4wJywgJy1waCcsICc3LjQnLCAnLXRuJywgJzgnLCAnLW1hJywgJzUwMCcsICctaW1hZScsICc8aW5maWxlLm1hZT4nLCAnLW9tYWUnLCAnPG91dGZpbGUubWFlPic=

>  <s_epik_input>  (1) 
bzFubmMoYzEyKVtDSDJdQyg9W0NIMl0pW0NASF0oW0NIMl1bQ0gyXTIpW0NIMl1TW0NAQEhdKFtDSDJdW05IXTMpW0NIMl1bQ0BdMyhbT0hdKVMoPU8pKD1PKWMoW2NIXWM0RilbY0hdW2NIXVtjSF00

>  <s_glide_docking_method>  (1) 
confgen

>  <s_i_glide_gridfile>  (1) 
gpcr_drd2_6luq_protein_autoprepared_prepared

>  <s_lp_Force_Field>  (1) 
S-OPLS

>  <s_lp_Variant>  (1) 
DiffSBDD_87_num_sample_100-1

>  <s_m_source_file>  (1) 
generated__ligand_DiffSBDD_2026-05-06_prepared.sdf

>  <GenAI_Model>  (1) 
DiffSBDD

>  <Protein>  (1) 
generic_title2

$$$$
DiffSBDD_51_num_sample_100
     RDKit          3D

  0  0  0  0  0  0  0  0  0  0999 V3000
M  V30 BEGIN CTAB
M  V30 COUNTS 33 34 0 0 1
M  V30 BEGIN ATOM
M  V30 1 C 11.483414 6.785509 -4.855677 0
M  V30 2 C 10.484910 7.615848 -5.686677 0
M  V30 3 C 9.805862 6.805818 -6.799456 0
M  V30 4 O 11.489695 7.369301 -8.451407 0
M  V30 5 C 12.581777 9.000332 -4.061253 0
M  V30 6 C 10.145168 7.369304 -12.383947 0
M  V30 7 N 10.823280 7.348942 -11.084000 0 CHG=1
M  V30 8 C 8.982888 6.550654 -11.734607 0
M  V30 9 C 12.133400 7.572475 -3.690000 0
M  V30 10 C 9.752684 6.836368 -10.510244 0
M  V30 11 C 11.021046 9.021661 -6.037396 0
M  V30 12 N 9.434839 6.640525 -9.226314 0
M  V30 13 C 11.474187 9.777870 -4.787083 0
M  V30 14 C 10.354572 6.971173 -8.201107 0
M  V30 15 H 10.973393 5.915342 -4.439666 0
M  V30 16 H 12.234838 6.369833 -5.523053 0
M  V30 17 H 9.619792 7.808189 -5.091667 0
M  V30 18 H 8.752986 7.096632 -6.843285 0
M  V30 19 H 9.799836 5.750118 -6.548254 0
M  V30 20 H 12.879551 9.536140 -3.158916 0
M  V30 21 H 13.469138 8.969304 -4.691667 0
M  V30 22 H 9.834833 8.367197 -12.691665 0
M  V30 23 H 10.730181 6.815598 -13.111507 0
M  V30 24 H 8.961442 5.489687 -11.986261 0
M  V30 25 H 8.006459 7.037643 -11.739842 0
M  V30 26 H 11.434839 7.634675 -2.858586 0
M  V30 27 H 12.982344 7.012955 -3.296830 0
M  V30 28 H 11.880380 8.969332 -6.703685 0
M  V30 29 H 10.250737 9.589483 -6.556190 0
M  V30 30 H 11.424702 8.061337 -10.691784 0
M  V30 31 H 10.634837 9.954012 -4.115405 0
M  V30 32 H 11.834838 10.759541 -5.091668 0
M  V30 33 H 8.497861 6.297877 -9.048427 0
M  V30 END ATOM
M  V30 BEGIN BOND
M  V30 1 1 2 1
M  V30 2 1 3 2
M  V30 3 1 7 6
M  V30 4 1 8 6
M  V30 5 1 9 1
M  V30 6 1 9 5
M  V30 7 2 10 7
M  V30 8 1 10 8
M  V30 9 1 11 2
M  V30 10 1 12 10
M  V30 11 1 13 5
M  V30 12 1 13 11
M  V30 13 1 14 3
M  V30 14 2 14 4
M  V30 15 1 14 12
M  V30 16 1 15 1
M  V30 17 1 16 1
M  V30 18 1 17 2
M  V30 19 1 18 3
M  V30 20 1 19 3
M  V30 21 1 20 5
M  V30 22 1 21 5
M  V30 23 1 22 6
M  V30 24 1 23 6
M  V30 25 1 24 8
M  V30 26 1 25 8
M  V30 27 1 26 9
M  V30 28 1 27 9
M  V30 29 1 28 11
M  V30 30 1 29 11
M  V30 31 1 30 7
M  V30 32 1 31 13
M  V30 33 1 32 13
M  V30 34 1 33 12
M  V30 END BOND
M  V30 END CTAB
M  END
>  <i_epik_Tot_Q>  (1) 
1

>  <i_epik_Tot_abs_Q>  (1) 
1

>  <i_i_glide_confnum>  (1) 
3

>  <i_i_glide_lignum>  (1) 
96

>  <i_i_glide_posenum>  (1) 
111

>  <i_i_glide_rotatable_bonds>  (1) 
4

>  <i_lp_mmshare_version>  (1) 
72125

>  <i_m_source_file_index>  (1) 
52

>  <i_f3d_flags>  (1) 
0

>  <num_sample>  (1) 
100

>  <b_lp_Chiralities_Consistent>  (1) 
1

>  <r_epik_Charging_Adjusted_Penalty>  (1) 
0.0012355626880465899

>  <r_epik_Ionization_Penalty>  (1) 
0.0012355626882857627

>  <r_epik_Ionization_Penalty_Charging>  (1) 
0.0012355626880465899

>  <r_epik_Ionization_Penalty_Neutral>  (1) 
2.3917293134818898e-13

>  <r_epik_State_Penalty>  (1) 
-0

>  <r_glide_ring_energy>  (1) 
0

>  <r_i_docking_score>  (1) 
-5.0779741528438782

>  <r_i_glide_ecoul>  (1) 
-4.530372775394726

>  <r_i_glide_eff_state_penalty>  (1) 
-0

>  <r_i_glide_einternal>  (1) 
0.49939515049920152

>  <r_i_glide_emodel>  (1) 
-30.200332814569265

>  <r_i_glide_emodel_strain>  (1) 
1.8247826678727108

>  <r_i_glide_energy>  (1) 
-21.45887222053031

>  <r_i_glide_erotb>  (1) 
0.84972591180096124

>  <r_i_glide_esite>  (1) 
-0.22678111075299778

>  <r_i_glide_evdw>  (1) 
-16.928499445135582

>  <r_i_glide_gscore>  (1) 
-5.0779741528438782

>  <r_i_glide_gscore_strain>  (1) 
0

>  <r_i_glide_hbond>  (1) 
-0.027284338691604966

>  <r_i_glide_ligand_efficiency>  (1) 
-0.36271243948884846

>  <r_i_glide_ligand_efficiency_ln>  (1) 
-1.3954092208216875

>  <r_i_glide_ligand_efficiency_sa>  (1) 
-0.87418858015417433

>  <r_i_glide_lipo>  (1) 
-1.728557284109226

>  <r_i_glide_metal>  (1) 
-0

>  <r_i_glide_rewards>  (1) 
-2.4190964425250225

>  <r_lp_Energy>  (1) 
15.798371999999999

>  <r_lp_tautomer_probability>  (1) 
1

>  <s_epik_Chemistry_Notes>  (1) 
This compound has an imine and may undergo hydrolysis.

>  <s_epik_cmdline>  (1) 
J2VwaWtfcHl0aG9uJywgJy1waHQnLCAnMS4wJywgJy1waCcsICc3LjQnLCAnLXRuJywgJzgnLCAnLW1hJywgJzUwMCcsICctaW1hZScsICc8aW5maWxlLm1hZT4nLCAnLW9tYWUnLCAnPG91dGZpbGUubWFlPic=

>  <s_epik_input>  (1) 
W0NIMl0xW0NIMl1bQ0gyXVtDSDJdW0NIMl1bQ0hdMVtDSDJdQyg9TylbTkhdQzI9TltDSDJdW0NIMl0y

>  <s_glide_docking_method>  (1) 
confgen

>  <s_i_glide_gridfile>  (1) 
gpcr_drd2_6luq_protein_autoprepared_prepared

>  <s_lp_Force_Field>  (1) 
S-OPLS

>  <s_lp_Variant>  (1) 
DiffSBDD_51_num_sample_100-1

>  <s_m_source_file>  (1) 
generated__ligand_DiffSBDD_2026-05-06_prepared.sdf

>  <GenAI_Model>  (1) 
DiffSBDD

>  <Protein>  (1) 
generic_title2

$$$$
DiffSBDD_83_num_sample_100
     RDKit          3D

  0  0  0  0  0  0  0  0  0  0999 V3000
M  V30 BEGIN CTAB
M  V30 COUNTS 48 52 0 0 1
M  V30 BEGIN ATOM
M  V30 1 C 6.494798 4.467720 -12.115161 0
M  V30 2 C 11.104676 10.112639 -4.970470 0
M  V30 3 C 11.046099 7.668142 -5.092311 0 CFG=1
M  V30 4 C 10.243174 5.948543 -7.537991 0
M  V30 5 C 11.290998 8.005334 -6.559768 0 CFG=2
M  V30 6 N 8.234833 5.131963 -9.131860 0
M  V30 7 C 11.964275 8.053555 -3.948613 0
M  V30 8 C 7.281010 2.560747 -13.412509 0
M  V30 9 C 10.486156 8.929575 -5.689012 0 CFG=2
M  V30 10 C 10.659546 7.200737 -7.642030 0
M  V30 11 C 7.017651 1.453161 -14.420721 0
M  V30 12 C 8.028024 5.680711 -10.511222 0 CFG=1
M  V30 13 C 8.807813 3.723112 -11.902075 0
M  V30 14 C 10.371150 7.625364 -8.910980 0
M  V30 15 C 6.249527 3.451361 -13.054058 0
M  V30 16 C 12.276191 9.541058 -4.148319 0
M  V30 17 C 9.168252 6.699397 -10.900483 0
M  V30 18 C 8.559855 2.698264 -12.831121 0
M  V30 19 C 9.800844 6.634058 -9.580140 0
M  V30 20 C 5.880260 0.499699 -14.019933 0
M  V30 21 O 6.234828 -0.230697 -12.869782 0
M  V30 22 C 9.641388 5.308803 -8.845523 0 CFG=1
M  V30 23 C 7.775380 4.602016 -11.535892 0
M  V30 24 H 5.699861 5.143108 -11.833899 0
M  V30 25 H 11.434570 10.870695 -5.681097 0
M  V30 26 H 10.362452 10.569318 -4.314138 0
M  V30 27 H 10.348112 6.862347 -4.871847 0
M  V30 28 H 10.332398 5.369301 -6.640297 0
M  V30 29 H 12.270377 8.371408 -6.853019 0
M  V30 30 H 7.966700 4.160520 -9.094034 0
M  V30 31 H 12.855799 7.429177 -3.891665 0
M  V30 32 H 11.434847 7.913326 -3.006860 0
M  V30 33 H 9.417929 8.969300 -5.891675 0
M  V30 34 H 7.931718 0.882264 -14.591968 0
M  V30 35 H 6.772863 1.923760 -15.373152 0
M  V30 36 H 7.065787 6.169301 -10.465760 0
M  V30 37 H 9.786732 3.821884 -11.458519 0
M  V30 38 H 10.507266 8.631170 -9.278863 0
M  V30 39 H 5.269261 3.350102 -13.491678 0
M  V30 40 H 13.203800 9.642504 -4.713911 0
M  V30 41 H 12.413624 10.049641 -3.193650 0
M  V30 42 H 9.844861 6.321897 -11.666950 0
M  V30 43 H 8.801363 7.694292 -11.156582 0
M  V30 44 H 9.349032 2.012158 -13.091670 0
M  V30 45 H 5.705384 -0.213793 -14.825784 0
M  V30 46 H 4.938207 1.019596 -13.849077 0
M  V30 47 H 5.798421 -1.081874 -12.928790 0
M  V30 48 H 10.234840 4.508146 -9.271923 0
M  V30 END ATOM
M  V30 BEGIN BOND
M  V30 1 1 5 3
M  V30 2 1 7 3
M  V30 3 1 9 2
M  V30 4 1 9 3
M  V30 5 1 9 5
M  V30 6 2 10 4
M  V30 7 1 10 5
M  V30 8 1 11 8
M  V30 9 1 12 6
M  V30 10 1 14 10
M  V30 11 2 15 1
M  V30 12 1 15 8
M  V30 13 1 16 2
M  V30 14 1 16 7
M  V30 15 1 17 12
M  V30 16 2 18 8
M  V30 17 1 18 13
M  V30 18 2 19 14
M  V30 19 1 19 17
M  V30 20 1 20 11
M  V30 21 1 21 20
M  V30 22 1 22 4
M  V30 23 1 22 6
M  V30 24 1 22 19
M  V30 25 1 23 1
M  V30 26 1 23 12
M  V30 27 2 23 13
M  V30 28 1 24 1
M  V30 29 1 25 2
M  V30 30 1 26 2
M  V30 31 1 3 27 CFG=3
M  V30 32 1 28 4
M  V30 33 1 5 29 CFG=3
M  V30 34 1 30 6
M  V30 35 1 31 7
M  V30 36 1 32 7
M  V30 37 1 9 33 CFG=3
M  V30 38 1 34 11
M  V30 39 1 35 11
M  V30 40 1 12 36 CFG=1
M  V30 41 1 37 13
M  V30 42 1 38 14
M  V30 43 1 39 15
M  V30 44 1 40 16
M  V30 45 1 41 16
M  V30 46 1 42 17
M  V30 47 1 43 17
M  V30 48 1 44 18
M  V30 49 1 45 20
M  V30 50 1 46 20
M  V30 51 1 47 21
M  V30 52 1 22 48 CFG=3
M  V30 END BOND
M  V30 END CTAB
M  END
>  <i_epik_Tot_Q>  (1) 
0

>  <i_epik_Tot_abs_Q>  (1) 
0

>  <i_i_glide_confnum>  (1) 
186

>  <i_i_glide_lignum>  (1) 
172

>  <i_i_glide_posenum>  (1) 
400

>  <i_i_glide_rotatable_bonds>  (1) 
5

>  <i_lp_mmshare_version>  (1) 
72125

>  <i_m_source_file_index>  (1) 
84

>  <i_f3d_flags>  (1) 
0

>  <num_sample>  (1) 
100

>  <b_lp_Chiralities_Consistent>  (1) 
1

>  <r_epik_Charging_Adjusted_Penalty>  (1) 
0.79484472859609101

>  <r_epik_Ionization_Penalty>  (1) 
0.79484480768617471

>  <r_epik_Ionization_Penalty_Charging>  (1) 
0

>  <r_epik_Ionization_Penalty_Neutral>  (1) 
0.79484480768617471

>  <r_epik_State_Penalty>  (1) 
0.79484472859609101

>  <r_glide_ring_energy>  (1) 
0

>  <r_i_docking_score>  (1) 
-5.0760827812675497

>  <r_i_glide_ecoul>  (1) 
-1.9488608426950988

>  <r_i_glide_eff_state_penalty>  (1) 
0.79484472859609101

>  <r_i_glide_einternal>  (1) 
1.7110528124867077

>  <r_i_glide_emodel>  (1) 
-42.202472076142257

>  <r_i_glide_emodel_strain>  (1) 
0.28340628750152064

>  <r_i_glide_energy>  (1) 
-31.939431615116355

>  <r_i_glide_erotb>  (1) 
0.7823539513187745

>  <r_i_glide_esite>  (1) 
0

>  <r_i_glide_evdw>  (1) 
-29.990570772421258

>  <r_i_glide_gscore>  (1) 
-5.8709275098636411

>  <r_i_glide_gscore_strain>  (1) 
0

>  <r_i_glide_hbond>  (1) 
-0.16

>  <r_i_glide_ligand_efficiency>  (1) 
-0.2206992513594587

>  <r_i_glide_ligand_efficiency_ln>  (1) 
-1.227442843884397

>  <r_i_glide_ligand_efficiency_sa>  (1) 
-0.62763931341912527

>  <r_i_glide_lipo>  (1) 
-2.5720698879047563

>  <r_i_glide_metal>  (1) 
-0

>  <r_i_glide_rewards>  (1) 
-2.1293539082523312

>  <r_lp_Energy>  (1) 
34.739830999999995

>  <s_epik_cmdline>  (1) 
J2VwaWtfcHl0aG9uJywgJy1waHQnLCAnMS4wJywgJy1waCcsICc3LjQnLCAnLXRuJywgJzgnLCAnLW1hJywgJzUwMCcsICctaW1hZScsICc8aW5maWxlLm1hZT4nLCAnLW9tYWUnLCAnPG91dGZpbGUubWFlPic=

>  <s_epik_input>  (1) 
W09IXVtDSDJdW0NIMl1jMVtjSF1bY0hdYyhbY0hdW2NIXTEpW0NASF0oW0NIMl0yKVtOSF1bQ0BIXShDMjMpW0NIXT1DKFtDSF09MylbQ0BIXTRbQ0BASF0oW0NAQEhdNDUpW0NIMl1bQ0gyXVtDSDJdNQ==

>  <s_glide_docking_method>  (1) 
confgen

>  <s_i_glide_gridfile>  (1) 
gpcr_drd2_6luq_protein_autoprepared_prepared

>  <s_lp_Force_Field>  (1) 
S-OPLS

>  <s_lp_Variant>  (1) 
DiffSBDD_83_num_sample_100-4

>  <s_m_source_file>  (1) 
generated__ligand_DiffSBDD_2026-05-06_prepared.sdf

>  <GenAI_Model>  (1) 
DiffSBDD

>  <Protein>  (1) 
generic_title2

$$$$
DiffSBDD_83_num_sample_100
     RDKit          3D

  0  0  0  0  0  0  0  0  0  0999 V3000
M  V30 BEGIN CTAB
M  V30 COUNTS 48 52 0 0 1
M  V30 BEGIN ATOM
M  V30 1 C 9.646458 5.450225 -8.420405 0
M  V30 2 C 5.277407 8.301910 -16.404937 0
M  V30 3 C 6.536748 6.222531 -16.631476 0 CFG=1
M  V30 4 C 5.943055 4.859539 -13.082493 0
M  V30 5 C 5.840877 5.993011 -15.306718 0 CFG=2
M  V30 6 N 7.298125 4.968880 -10.768582 0
M  V30 7 C 5.784563 6.430621 -17.922759 0
M  V30 8 C 10.677784 7.632732 -8.058186 0
M  V30 9 C 6.234845 7.380155 -15.719611 0 CFG=2
M  V30 10 C 6.526667 5.390756 -14.146334 0
M  V30 11 C 11.356946 8.629639 -7.137889 0
M  V30 12 C 8.776680 4.760427 -10.695628 0 CFG=1
M  V30 13 C 9.834838 7.033685 -10.268929 0
M  V30 14 C 7.877745 5.327310 -13.953046 0
M  V30 15 C 10.268645 6.375844 -7.563715 0
M  V30 16 C 4.748690 7.527706 -17.629251 0
M  V30 17 C 9.412901 4.632822 -12.125318 0
M  V30 18 C 10.456636 7.960844 -9.411525 0
M  V30 19 C 8.122603 4.751026 -12.794555 0
M  V30 20 C 10.635097 8.804548 -5.792977 0
M  V30 21 O 11.181390 9.902104 -5.091672 0
M  V30 22 C 6.915448 4.281530 -11.989131 0 CFG=2
M  V30 23 C 9.434835 5.771960 -9.774980 0
M  V30 24 H 9.335034 4.489904 -8.040110 0
M  V30 25 H 4.477851 8.599425 -15.726145 0
M  V30 26 H 5.834804 9.194083 -16.692545 0
M  V30 27 H 7.564317 5.878027 -16.727955 0
M  V30 28 H 4.874866 4.790734 -12.958078 0
M  V30 29 H 4.777797 5.769314 -15.330646 0
M  V30 30 H 7.103145 5.965669 -10.779254 0
M  V30 31 H 5.326699 5.502001 -18.264533 0
M  V30 32 H 6.487886 6.767875 -18.685009 0
M  V30 33 H 7.037734 7.853382 -15.158822 0
M  V30 34 H 11.434838 9.589997 -7.645784 0
M  V30 35 H 12.382209 8.301542 -6.986939 0
M  V30 36 H 8.927496 3.769312 -10.280070 0
M  V30 37 H 9.665802 7.289297 -11.303851 0
M  V30 38 H 8.623843 5.749987 -14.609323 0
M  V30 39 H 10.434026 6.119900 -6.528252 0
M  V30 40 H 3.794225 7.064567 -17.374482 0
M  V30 41 H 4.577523 8.169307 -18.493485 0
M  V30 42 H 10.106212 5.418674 -12.423268 0
M  V30 43 H 9.855639 3.650714 -12.291603 0
M  V30 44 H 10.765090 8.923036 -9.792385 0
M  V30 45 H 10.724812 7.911607 -5.174341 0
M  V30 46 H 9.569879 8.969314 -5.954756 0
M  V30 47 H 12.084033 9.711083 -4.887190 0
M  V30 48 H 6.885275 3.197032 -11.894779 0
M  V30 END ATOM
M  V30 BEGIN BOND
M  V30 1 1 5 3
M  V30 2 1 7 3
M  V30 3 1 9 2
M  V30 4 1 9 3
M  V30 5 1 9 5
M  V30 6 2 10 4
M  V30 7 1 10 5
M  V30 8 1 11 8
M  V30 9 1 12 6
M  V30 10 1 14 10
M  V30 11 2 15 1
M  V30 12 1 15 8
M  V30 13 1 16 2
M  V30 14 1 16 7
M  V30 15 1 17 12
M  V30 16 2 18 8
M  V30 17 1 18 13
M  V30 18 2 19 14
M  V30 19 1 19 17
M  V30 20 1 20 11
M  V30 21 1 21 20
M  V30 22 1 22 4
M  V30 23 1 22 6
M  V30 24 1 22 19
M  V30 25 1 23 1
M  V30 26 1 23 12
M  V30 27 2 23 13
M  V30 28 1 24 1
M  V30 29 1 25 2
M  V30 30 1 26 2
M  V30 31 1 3 27 CFG=3
M  V30 32 1 28 4
M  V30 33 1 5 29 CFG=3
M  V30 34 1 30 6
M  V30 35 1 31 7
M  V30 36 1 32 7
M  V30 37 1 9 33 CFG=1
M  V30 38 1 34 11
M  V30 39 1 35 11
M  V30 40 1 12 36 CFG=1
M  V30 41 1 37 13
M  V30 42 1 38 14
M  V30 43 1 39 15
M  V30 44 1 40 16
M  V30 45 1 41 16
M  V30 46 1 42 17
M  V30 47 1 43 17
M  V30 48 1 44 18
M  V30 49 1 45 20
M  V30 50 1 46 20
M  V30 51 1 47 21
M  V30 52 1 22 48 CFG=1
M  V30 END BOND
M  V30 END CTAB
M  END
>  <i_epik_Tot_Q>  (1) 
0

>  <i_epik_Tot_abs_Q>  (1) 
0

>  <i_i_glide_confnum>  (1) 
187

>  <i_i_glide_lignum>  (1) 
171

>  <i_i_glide_posenum>  (1) 
319

>  <i_i_glide_rotatable_bonds>  (1) 
5

>  <i_lp_mmshare_version>  (1) 
72125

>  <i_m_source_file_index>  (1) 
84

>  <i_f3d_flags>  (1) 
0

>  <num_sample>  (1) 
100

>  <b_lp_Chiralities_Consistent>  (1) 
1

>  <r_epik_Charging_Adjusted_Penalty>  (1) 
0.79484472859609101

>  <r_epik_Ionization_Penalty>  (1) 
0.79484480768617471

>  <r_epik_Ionization_Penalty_Charging>  (1) 
0

>  <r_epik_Ionization_Penalty_Neutral>  (1) 
0.79484480768617471

>  <r_epik_State_Penalty>  (1) 
0.79484472859609101

>  <r_glide_ring_energy>  (1) 
0

>  <r_i_docking_score>  (1) 
-5.0724835108716384

>  <r_i_glide_ecoul>  (1) 
-0.12033862256345745

>  <r_i_glide_eff_state_penalty>  (1) 
0.79484472859609101

>  <r_i_glide_einternal>  (1) 
2.8060357563870335

>  <r_i_glide_emodel>  (1) 
-43.248959336129097

>  <r_i_glide_emodel_strain>  (1) 
0.78586181553168899

>  <r_i_glide_energy>  (1) 
-34.404090121371453

>  <r_i_glide_erotb>  (1) 
0.7823539513187745

>  <r_i_glide_esite>  (1) 
0

>  <r_i_glide_evdw>  (1) 
-34.283751498807995

>  <r_i_glide_gscore>  (1) 
-5.8673282394677297

>  <r_i_glide_gscore_strain>  (1) 
0

>  <r_i_glide_hbond>  (1) 
-0.039437460711286641

>  <r_i_glide_ligand_efficiency>  (1) 
-0.22054276134224515

>  <r_i_glide_ligand_efficiency_ln>  (1) 
-1.2265725076662861

>  <r_i_glide_ligand_efficiency_sa>  (1) 
-0.6271942766264953

>  <r_i_glide_lipo>  (1) 
-2.6650938617502979

>  <r_i_glide_metal>  (1) 
-0

>  <r_i_glide_rewards>  (1) 
-2.2129125000000012

>  <r_lp_Energy>  (1) 
31.713768999999999

>  <s_epik_cmdline>  (1) 
J2VwaWtfcHl0aG9uJywgJy1waHQnLCAnMS4wJywgJy1waCcsICc3LjQnLCAnLXRuJywgJzgnLCAnLW1hJywgJzUwMCcsICctaW1hZScsICc8aW5maWxlLm1hZT4nLCAnLW9tYWUnLCAnPG91dGZpbGUubWFlPic=

>  <s_epik_input>  (1) 
W09IXVtDSDJdW0NIMl1jMVtjSF1bY0hdYyhbY0hdW2NIXTEpW0NASF0oW0NIMl0yKVtOSF1bQ0BIXShDMjMpW0NIXT1DKFtDSF09MylbQ0BIXTRbQ0BASF0oW0NAQEhdNDUpW0NIMl1bQ0gyXVtDSDJdNQ==

>  <s_glide_docking_method>  (1) 
confgen

>  <s_i_glide_gridfile>  (1) 
gpcr_drd2_6luq_protein_autoprepared_prepared

>  <s_lp_Force_Field>  (1) 
S-OPLS

>  <s_lp_Variant>  (1) 
DiffSBDD_83_num_sample_100-3

>  <s_m_source_file>  (1) 
generated__ligand_DiffSBDD_2026-05-06_prepared.sdf

>  <GenAI_Model>  (1) 
DiffSBDD

>  <Protein>  (1) 
generic_title2

$$$$
DiffSBDD_53_num_sample_100
     RDKit          3D

  0  0  0  0  0  0  0  0  0  0999 V3000
M  V30 BEGIN CTAB
M  V30 COUNTS 57 60 0 0 1
M  V30 BEGIN ATOM
M  V30 1 N 10.615543 7.442641 -8.648705 0
M  V30 2 C 8.454146 5.301721 -20.256717 0
M  V30 3 C 9.010835 6.313871 -11.848325 0
M  V30 4 C 10.618928 7.357143 -7.291222 0
M  V30 5 O 6.075970 6.445148 -13.471499 0
M  V30 6 C 7.848956 3.745837 -14.762622 0
M  V30 7 C 8.122053 5.309902 -11.399302 0
M  V30 8 O 4.624531 7.958936 -21.445386 0
M  V30 9 C 5.642207 3.519890 -19.747302 0
M  V30 10 C 7.025772 5.801189 -19.934877 0 CFG=2
M  V30 11 F 6.352101 4.429610 -21.722541 0
M  V30 12 C 11.542515 8.329164 -6.562558 0
M  V30 13 F 12.634882 8.569512 -7.290454 0
M  V30 14 C 6.756449 7.114207 -20.719820 0
M  V30 15 C 9.834273 6.992864 -10.929709 0
M  V30 16 C 9.782425 6.676215 -9.555753 0
M  V30 17 F 10.894745 9.471335 -6.335828 0
M  V30 18 C 6.737123 5.416526 -13.614625 0
M  V30 19 N 6.865434 5.499669 -16.119805 0
M  V30 20 C 5.281033 7.005069 -21.033701 0
M  V30 21 C 5.964717 6.635037 -16.262961 0
M  V30 22 C 8.908639 5.641064 -9.108413 0
M  V30 23 C 7.200666 4.589443 -12.383851 0 CFG=1
M  V30 24 C 7.416259 5.049332 -17.388468 0
M  V30 25 C 4.669026 5.645314 -20.800242 0
M  V30 26 C 7.163958 4.863767 -14.898088 0
M  V30 27 C 6.970052 6.128151 -18.397891 0 CFG=2
M  V30 28 C 5.673522 6.672217 -17.768803 0
M  V30 29 S 8.106014 3.147015 -13.136166 0
M  V30 30 O 9.939868 6.569250 -6.644237 0
M  V30 31 C 5.932214 4.816610 -20.513727 0 CFG=1
M  V30 32 C 8.083988 4.969417 -10.033007 0
M  V30 33 H 11.216987 8.134716 -9.068904 0
M  V30 34 H 8.626575 5.215229 -21.329945 0
M  V30 35 H 9.212061 5.985032 -19.871558 0
M  V30 36 H 8.642768 4.320576 -19.820766 0
M  V30 37 H 9.052190 6.572917 -12.895280 0
M  V30 38 H 8.255896 3.185045 -15.590562 0
M  V30 39 H 5.179267 3.716191 -18.782190 0
M  V30 40 H 4.951012 2.887988 -20.305603 0
M  V30 41 H 6.550588 2.939234 -19.587495 0
M  V30 42 H 11.834836 7.921616 -5.595939 0
M  V30 43 H 6.982696 8.016373 -20.151989 0
M  V30 44 H 7.308601 7.146053 -21.659285 0
M  V30 45 H 10.496289 7.770632 -11.278221 0
M  V30 46 H 5.034618 6.511861 -15.710134 0
M  V30 47 H 6.460144 7.548943 -15.931270 0
M  V30 48 H 8.846245 5.367380 -8.077263 0
M  V30 49 H 6.318456 4.223804 -11.858078 0
M  V30 50 H 8.504144 4.984822 -17.339389 0
M  V30 51 H 7.035014 4.056573 -17.608080 0
M  V30 52 H 3.998673 5.676872 -19.944486 0
M  V30 53 H 4.119462 5.287926 -21.671043 0
M  V30 54 H 7.690906 6.938244 -18.272673 0
M  V30 55 H 4.837255 6.008007 -17.979172 0
M  V30 56 H 5.410221 7.673222 -18.112144 0
M  V30 57 H 7.410222 4.198629 -9.688753 0
M  V30 END ATOM
M  V30 BEGIN BOND
M  V30 1 1 4 1
M  V30 2 1 7 3
M  V30 3 1 10 2 CFG=3
M  V30 4 1 12 4
M  V30 5 1 13 12
M  V30 6 1 14 10
M  V30 7 2 15 3
M  V30 8 1 16 1
M  V30 9 1 16 15
M  V30 10 1 17 12
M  V30 11 2 18 5
M  V30 12 2 20 8
M  V30 13 1 20 14
M  V30 14 1 21 19
M  V30 15 2 22 16
M  V30 16 1 23 7
M  V30 17 1 23 18
M  V30 18 1 24 19
M  V30 19 1 25 20
M  V30 20 2 26 6
M  V30 21 1 26 18
M  V30 22 1 26 19
M  V30 23 1 27 10
M  V30 24 1 27 24
M  V30 25 1 28 21
M  V30 26 1 28 27
M  V30 27 1 29 6
M  V30 28 1 29 23
M  V30 29 2 30 4
M  V30 30 1 31 9
M  V30 31 1 31 10
M  V30 32 1 31 11 CFG=3
M  V30 33 1 31 25
M  V30 34 2 32 7
M  V30 35 1 32 22
M  V30 36 1 33 1
M  V30 37 1 34 2
M  V30 38 1 35 2
M  V30 39 1 36 2
M  V30 40 1 37 3
M  V30 41 1 38 6
M  V30 42 1 39 9
M  V30 43 1 40 9
M  V30 44 1 41 9
M  V30 45 1 42 12
M  V30 46 1 43 14
M  V30 47 1 44 14
M  V30 48 1 45 15
M  V30 49 1 46 21
M  V30 50 1 47 21
M  V30 51 1 48 22
M  V30 52 1 23 49 CFG=1
M  V30 53 1 50 24
M  V30 54 1 51 24
M  V30 55 1 52 25
M  V30 56 1 53 25
M  V30 57 1 27 54 CFG=3
M  V30 58 1 55 28
M  V30 59 1 56 28
M  V30 60 1 57 32
M  V30 END BOND
M  V30 END CTAB
M  END
>  <i_epik_Tot_Q>  (1) 
0

>  <i_epik_Tot_abs_Q>  (1) 
0

>  <i_i_glide_confnum>  (1) 
10

>  <i_i_glide_lignum>  (1) 
99

>  <i_i_glide_posenum>  (1) 
66

>  <i_i_glide_rotatable_bonds>  (1) 
6

>  <i_lp_mmshare_version>  (1) 
72125

>  <i_m_source_file_index>  (1) 
54

>  <i_f3d_flags>  (1) 
0

>  <num_sample>  (1) 
100

>  <b_lp_Chiralities_Consistent>  (1) 
1

>  <r_epik_Charging_Adjusted_Penalty>  (1) 
4.1888359508332041e-06

>  <r_epik_Ionization_Penalty>  (1) 
8.7681406238932585e-06

>  <r_epik_Ionization_Penalty_Charging>  (1) 
4.1888359508332041e-06

>  <r_epik_Ionization_Penalty_Neutral>  (1) 
4.5793046730600536e-06

>  <r_epik_State_Penalty>  (1) 
-0

>  <r_glide_ring_energy>  (1) 
0

>  <r_i_docking_score>  (1) 
-5.0723694325545114

>  <r_i_glide_ecoul>  (1) 
2.269878992970539

>  <r_i_glide_eff_state_penalty>  (1) 
-0

>  <r_i_glide_einternal>  (1) 
4.3383793851267178

>  <r_i_glide_emodel>  (1) 
-50.443614672584538

>  <r_i_glide_emodel_strain>  (1) 
0.19110687274543636

>  <r_i_glide_energy>  (1) 
-40.726123649188722

>  <r_i_glide_erotb>  (1) 
0.46348911734649417

>  <r_i_glide_esite>  (1) 
-0.024119485193438879

>  <r_i_glide_evdw>  (1) 
-42.996002642159262

>  <r_i_glide_gscore>  (1) 
-5.0723694325545114

>  <r_i_glide_gscore_strain>  (1) 
0

>  <r_i_glide_hbond>  (1) 
0

>  <r_i_glide_ligand_efficiency>  (1) 
-0.15851154476732848

>  <r_i_glide_ligand_efficiency_ln>  (1) 
-1.1358417835175754

>  <r_i_glide_ligand_efficiency_sa>  (1) 
-0.50324278582552329

>  <r_i_glide_lipo>  (1) 
-1.7385245495811592

>  <r_i_glide_metal>  (1) 
-0

>  <r_i_glide_rewards>  (1) 
-1.9638962319640261

>  <r_lp_Energy>  (1) 
16.010603

>  <r_lp_tautomer_probability>  (1) 
1

>  <s_epik_Chemistry_Notes>  (1) 
This compound has an imine and may undergo hydrolysis.

>  <s_epik_cmdline>  (1) 
J2VwaWtfcHl0aG9uJywgJy1waHQnLCAnMS4wJywgJy1waCcsICc3LjQnLCAnLXRuJywgJzgnLCAnLW1hJywgJzUwMCcsICctaW1hZScsICc8aW5maWxlLm1hZT4nLCAnLW9tYWUnLCAnPG91dGZpbGUubWFlPic=

>  <s_epik_input>  (1) 
RltDSF0oRilDKD1PKVtOSF1jKFtjSF1bY0hdMSlbY0hdW2NIXWMxW0NAQEhdKEMyPU8pU1tDSF09QzJOM1tDSDJdW0NIMl1bQ0BASF0oW0NIMl0zKVtDQF00KFtDSDNdKVtDSDJdQyg9TylbQ0gyXVtDQF00KEYpW0NIM10=

>  <s_glide_docking_method>  (1) 
confgen

>  <s_i_glide_gridfile>  (1) 
gpcr_drd2_6luq_protein_autoprepared_prepared

>  <s_lp_Force_Field>  (1) 
S-OPLS

>  <s_lp_Variant>  (1) 
DiffSBDD_53_num_sample_100-1

>  <s_m_source_file>  (1) 
generated__ligand_DiffSBDD_2026-05-06_prepared.sdf

>  <GenAI_Model>  (1) 
DiffSBDD

>  <Protein>  (1) 
generic_title2

$$$$
DiffSBDD_88_num_sample_100
     RDKit          3D

  0  0  0  0  0  0  0  0  0  0999 V3000
M  V30 BEGIN CTAB
M  V30 COUNTS 57 61 0 0 1
M  V30 BEGIN ATOM
M  V30 1 S 5.136773 0.480971 -19.091689 0
M  V30 2 O 8.205964 1.407499 -13.810381 0
M  V30 3 C 7.648159 1.905412 -16.080440 0
M  V30 4 O 11.493172 7.802647 -6.733266 0
M  V30 5 F 9.434831 6.397622 -6.013947 0
M  V30 6 C 6.701692 0.889075 -18.266149 0 CFG=1
M  V30 7 C 10.196092 6.568226 -11.706841 0
M  V30 8 C 10.689997 7.738312 -10.005019 0
M  V30 9 C 9.407971 5.617083 -9.543552 0
M  V30 10 C 6.629012 1.021707 -16.757338 0 CFG=1
M  V30 11 C 7.411383 2.271669 -14.604141 0 CFG=2
M  V30 12 C 5.110349 -1.179619 -18.420287 0
M  V30 13 N 11.408687 6.969301 -11.891671 0
M  V30 14 C 7.620224 4.084344 -12.736574 0 CFG=1
M  V30 15 O 4.234895 -1.997401 -18.691502 0
M  V30 16 N 9.415787 5.826464 -12.606091 0
M  V30 17 C 9.381970 6.796687 -7.279941 0 CFG=2
M  V30 18 C 6.262338 -1.508126 -17.485395 0
M  V30 19 C 6.891878 4.769071 -15.074275 0
M  V30 20 C 9.537206 6.887783 -10.396313 0 CFG=2
M  V30 21 C 9.351595 5.581631 -8.195244 0
M  V30 22 C 10.516142 8.569515 -8.774613 0
M  V30 23 C 7.980236 5.556801 -12.416567 0 CFG=1
M  V30 24 O 8.639829 2.322552 -16.680122 0
M  V30 25 C 6.234849 3.734606 -12.151113 0
M  V30 26 C 10.558562 7.724936 -7.525701 0
M  V30 27 C 7.737681 3.761793 -14.256938 0 CFG=2
M  V30 28 C 7.130369 6.536054 -13.247235 0
M  V30 29 C 7.132363 -0.267229 -17.395604 0 CFG=1
M  V30 30 N 11.734470 7.751594 -10.703482 0
M  V30 31 C 7.227308 6.232652 -14.748260 0
M  V30 32 H 8.072088 1.611994 -12.897090 0
M  V30 33 H 7.434139 1.425737 -18.866698 0
M  V30 34 H 9.367202 4.683346 -10.086763 0
M  V30 35 H 5.650983 0.966346 -16.283752 0
M  V30 36 H 6.365988 2.066314 -14.376181 0
M  V30 37 H 8.343292 3.467822 -12.200094 0
M  V30 38 H 9.783723 5.532208 -13.499304 0
M  V30 39 H 8.452979 7.353651 -7.386957 0
M  V30 40 H 5.891427 -1.785468 -16.498580 0
M  V30 41 H 6.839664 -2.342057 -17.884621 0
M  V30 42 H 7.035640 4.615555 -16.143985 0
M  V30 43 H 5.834834 4.594981 -14.886194 0
M  V30 44 H 8.634852 7.473328 -10.540840 0
M  V30 45 H 9.261040 4.625832 -7.705738 0
M  V30 46 H 11.293375 9.333493 -8.731741 0
M  V30 47 H 9.553669 9.077898 -8.825400 0
M  V30 48 H 7.679313 5.709329 -11.384815 0
M  V30 49 H 5.424879 4.279147 -12.634634 0
M  V30 50 H 6.017129 2.672320 -12.248874 0
M  V30 51 H 6.189415 3.966251 -11.085928 0
M  V30 52 H 8.777152 3.935031 -14.533561 0
M  V30 53 H 7.438969 7.563757 -13.050366 0
M  V30 54 H 6.088001 6.477101 -12.933192 0
M  V30 55 H 8.201072 -0.466323 -17.324151 0
M  V30 56 H 8.234842 6.453581 -15.091324 0
M  V30 57 H 6.566609 6.899655 -15.302830 0
M  V30 END ATOM
M  V30 BEGIN BOND
M  V30 1 1 6 1
M  V30 2 1 10 3
M  V30 3 1 10 6
M  V30 4 1 11 2
M  V30 5 1 11 3
M  V30 6 1 12 1
M  V30 7 2 13 7
M  V30 8 2 15 12
M  V30 9 1 16 7
M  V30 10 1 17 5
M  V30 11 1 18 12
M  V30 12 1 20 7
M  V30 13 1 20 8
M  V30 14 1 20 9
M  V30 15 2 21 9
M  V30 16 1 21 17
M  V30 17 1 22 8
M  V30 18 1 23 14
M  V30 19 1 23 16
M  V30 20 2 24 3
M  V30 21 1 25 14
M  V30 22 2 26 4
M  V30 23 1 26 17
M  V30 24 1 26 22
M  V30 25 1 27 11
M  V30 26 1 27 14
M  V30 27 1 27 19
M  V30 28 1 28 23
M  V30 29 1 29 6
M  V30 30 1 29 10
M  V30 31 1 29 18
M  V30 32 2 30 8
M  V30 33 1 30 13
M  V30 34 1 31 19
M  V30 35 1 31 28
M  V30 36 1 32 2
M  V30 37 1 6 33 CFG=3
M  V30 38 1 34 9
M  V30 39 1 10 35 CFG=3
M  V30 40 1 11 36 CFG=1
M  V30 41 1 14 37 CFG=1
M  V30 42 1 38 16
M  V30 43 1 17 39 CFG=1
M  V30 44 1 40 18
M  V30 45 1 41 18
M  V30 46 1 42 19
M  V30 47 1 43 19
M  V30 48 1 20 44 CFG=3
M  V30 49 1 45 21
M  V30 50 1 46 22
M  V30 51 1 47 22
M  V30 52 1 23 48 CFG=1
M  V30 53 1 49 25
M  V30 54 1 50 25
M  V30 55 1 51 25
M  V30 56 1 27 52 CFG=3
M  V30 57 1 53 28
M  V30 58 1 54 28
M  V30 59 1 29 55 CFG=1
M  V30 60 1 56 31
M  V30 61 1 57 31
M  V30 END BOND
M  V30 END CTAB
M  END
>  <i_epik_Tot_Q>  (1) 
0

>  <i_epik_Tot_abs_Q>  (1) 
0

>  <i_i_glide_confnum>  (1) 
5

>  <i_i_glide_lignum>  (1) 
178

>  <i_i_glide_posenum>  (1) 
142

>  <i_i_glide_rotatable_bonds>  (1) 
6

>  <i_lp_mmshare_version>  (1) 
72125

>  <i_m_source_file_index>  (1) 
89

>  <i_f3d_flags>  (1) 
0

>  <num_sample>  (1) 
100

>  <b_lp_Chiralities_Consistent>  (1) 
1

>  <r_epik_Charging_Adjusted_Penalty>  (1) 
0

>  <r_epik_Ionization_Penalty>  (1) 
0.0051441323120346551

>  <r_epik_Ionization_Penalty_Charging>  (1) 
0

>  <r_epik_Ionization_Penalty_Neutral>  (1) 
0.0051441323120346551

>  <r_epik_State_Penalty>  (1) 
-0

>  <r_glide_ring_energy>  (1) 
1.1418401425494451

>  <r_i_docking_score>  (1) 
-5.0643384812111334

>  <r_i_glide_ecoul>  (1) 
-4.7497471683471035

>  <r_i_glide_eff_state_penalty>  (1) 
-0

>  <r_i_glide_einternal>  (1) 
12.931745036380971

>  <r_i_glide_emodel>  (1) 
-56.039354594477679

>  <r_i_glide_emodel_strain>  (1) 
0.01958775158300341

>  <r_i_glide_energy>  (1) 
-46.537365417702638

>  <r_i_glide_erotb>  (1) 
0.49992101663368649

>  <r_i_glide_esite>  (1) 
-0.026772974214014967

>  <r_i_glide_evdw>  (1) 
-41.787618249355532

>  <r_i_glide_gscore>  (1) 
-5.0643384812111334

>  <r_i_glide_gscore_strain>  (1) 
0

>  <r_i_glide_hbond>  (1) 
0

>  <r_i_glide_ligand_efficiency>  (1) 
-0.16336575745842366

>  <r_i_glide_ligand_efficiency_ln>  (1) 
-1.1421635308483442

>  <r_i_glide_ligand_efficiency_sa>  (1) 
-0.51319402974315709

>  <r_i_glide_lipo>  (1) 
-1.1997170947017273

>  <r_i_glide_metal>  (1) 
-0

>  <r_i_glide_rewards>  (1) 
-1.5359264412092348

>  <r_lp_Energy>  (1) 
20.470316

>  <r_lp_tautomer_probability>  (1) 
1

>  <s_epik_Chemistry_Notes>  (1) 
This compound has an imine and may undergo hydrolysis.

>  <s_epik_cmdline>  (1) 
J2VwaWtfcHl0aG9uJywgJy1waHQnLCAnMS4wJywgJy1waCcsICc3LjQnLCAnLXRuJywgJzgnLCAnLW1hJywgJzUwMCcsICctaW1hZScsICc8aW5maWxlLm1hZT4nLCAnLW9tYWUnLCAnPG91dGZpbGUubWFlPic=

>  <s_epik_input>  (1) 
UzFDKD1PKVtDSDJdW0NAQEhdKFtDQEBIXTEyKVtDQEhdMkMoPU8pW0NAQEhdKFtPSF0pW0NASF0zW0NIMl1bQ0gyXVtDSDJdW0NAQEhdKFtDQEhdM1tDSDNdKVtOSF1DKD1OTjQpW0NASF0oQz00NSlbQ0hdPVtDSF1bQ0BASF0oRilDKD1PKVtDSDJdNQ==

>  <s_glide_docking_method>  (1) 
confgen

>  <s_i_glide_gridfile>  (1) 
gpcr_drd2_6luq_protein_autoprepared_prepared

>  <s_lp_Force_Field>  (1) 
S-OPLS

>  <s_lp_Variant>  (1) 
DiffSBDD_88_num_sample_100-1

>  <s_m_source_file>  (1) 
generated__ligand_DiffSBDD_2026-05-06_prepared.sdf

>  <GenAI_Model>  (1) 
DiffSBDD

>  <Protein>  (1) 
generic_title2

$$$$
DiffSBDD_61_num_sample_100
     RDKit          3D

  0  0  0  0  0  0  0  0  0  0999 V3000
M  V30 BEGIN CTAB
M  V30 COUNTS 52 54 0 0 1
M  V30 BEGIN ATOM
M  V30 1 N 10.680122 7.424532 -6.004608 0 CFG=2 CHG=1
M  V30 2 C 7.436523 3.794437 -16.206596 0
M  V30 3 C 7.554977 4.216512 -14.723737 0 CFG=1
M  V30 4 O 12.494513 7.631550 -2.802241 0
M  V30 5 C 12.482527 8.969304 -3.209622 0
M  V30 6 O 6.369327 4.877733 -14.301962 0
M  V30 7 C 9.299577 7.172813 -11.265833 0
M  V30 8 O 7.196026 0.969314 -12.713863 0
M  V30 9 C 9.326073 6.290135 -10.011204 0
M  V30 10 C 9.113505 5.339615 -13.098650 0 CFG=1
M  V30 11 C 11.259365 6.234211 -6.674441 0
M  V30 12 C 7.870429 3.043465 -13.762451 0 CFG=2
M  V30 13 C 6.702750 2.102494 -13.405314 0
M  V30 14 C 10.321373 5.751338 -7.783529 0
M  V30 15 C 8.723121 5.209046 -14.579367 0
M  V30 16 C 10.192198 6.827639 -8.862236 0 CFG=2
M  V30 17 O 7.434836 2.568691 -16.456767 0 CHG=-1
M  V30 18 C 10.498803 8.531494 -6.984141 0
M  V30 19 C 8.468664 6.570233 -12.413455 0
M  V30 20 C 9.644166 8.099303 -8.189725 0
M  V30 21 C 11.833964 6.940065 -3.787553 0
M  V30 22 C 11.434844 7.810350 -4.743033 0
M  V30 23 C 11.834839 9.112154 -4.411248 0
M  V30 24 S 8.634842 3.779602 -12.291664 0
M  V30 25 O 7.356236 4.712818 -17.053996 0
M  V30 26 H 12.970578 9.657252 -2.537702 0
M  V30 27 H 6.493039 5.147046 -13.405315 0
M  V30 28 H 10.315310 7.371063 -11.609811 0
M  V30 29 H 8.870440 8.141592 -11.009719 0
M  V30 30 H 7.880926 1.255957 -12.123956 0
M  V30 31 H 8.307877 6.113203 -9.662190 0
M  V30 32 H 9.720832 5.314610 -10.287422 0
M  V30 33 H 10.198942 5.435484 -13.045779 0
M  V30 34 H 12.234787 6.491463 -7.088931 0
M  V30 35 H 11.434842 5.430683 -5.963697 0
M  V30 36 H 8.634834 2.421106 -14.219416 0
M  V30 37 H 6.189834 1.754657 -14.300767 0
M  V30 38 H 5.965523 2.615553 -12.787654 0
M  V30 39 H 9.340300 5.513847 -7.367623 0
M  V30 40 H 10.678764 4.826001 -8.229589 0
M  V30 41 H 8.494541 6.169299 -15.043058 0
M  V30 42 H 9.589083 4.819046 -15.118760 0
M  V30 43 H 11.185189 7.040656 -9.261465 0
M  V30 44 H 11.473566 8.882944 -7.327166 0
M  V30 45 H 10.008022 9.369303 -6.492388 0
M  V30 46 H 8.331491 7.363702 -13.147513 0
M  V30 47 H 7.463517 6.333742 -12.061991 0
M  V30 48 H 9.572227 8.916538 -8.907553 0
M  V30 49 H 8.634838 7.908566 -7.837570 0
M  V30 50 H 11.746955 5.872243 -3.641843 0
M  V30 51 H 11.680664 10.030988 -4.958141 0
M  V30 52 H 9.743561 7.147280 -5.740960 0
M  V30 END ATOM
M  V30 BEGIN BOND
M  V30 1 1 3 2
M  V30 2 1 5 4
M  V30 3 1 3 6 CFG=1
M  V30 4 1 9 7
M  V30 5 1 11 1
M  V30 6 1 12 3
M  V30 7 1 13 8
M  V30 8 1 13 12
M  V30 9 1 14 11
M  V30 10 1 15 3
M  V30 11 1 15 10
M  V30 12 1 16 9
M  V30 13 1 16 14
M  V30 14 1 17 2
M  V30 15 1 18 1
M  V30 16 1 19 7
M  V30 17 1 19 10
M  V30 18 1 20 16
M  V30 19 1 20 18
M  V30 20 1 21 4
M  V30 21 1 22 1
M  V30 22 2 22 21
M  V30 23 2 23 5
M  V30 24 1 23 22
M  V30 25 1 24 10
M  V30 26 1 24 12
M  V30 27 2 25 2
M  V30 28 1 26 5
M  V30 29 1 27 6
M  V30 30 1 28 7
M  V30 31 1 29 7
M  V30 32 1 30 8
M  V30 33 1 31 9
M  V30 34 1 32 9
M  V30 35 1 10 33 CFG=3
M  V30 36 1 34 11
M  V30 37 1 35 11
M  V30 38 1 12 36 CFG=3
M  V30 39 1 37 13
M  V30 40 1 38 13
M  V30 41 1 39 14
M  V30 42 1 40 14
M  V30 43 1 41 15
M  V30 44 1 42 15
M  V30 45 1 16 43 CFG=3
M  V30 46 1 44 18
M  V30 47 1 45 18
M  V30 48 1 46 19
M  V30 49 1 47 19
M  V30 50 1 48 20
M  V30 51 1 49 20
M  V30 52 1 50 21
M  V30 53 1 51 23
M  V30 54 1 1 52 CFG=1
M  V30 END BOND
M  V30 END CTAB
M  END
>  <i_epik_Tot_Q>  (1) 
0

>  <i_epik_Tot_abs_Q>  (1) 
2

>  <i_i_glide_confnum>  (1) 
27

>  <i_i_glide_lignum>  (1) 
121

>  <i_i_glide_posenum>  (1) 
171

>  <i_i_glide_rotatable_bonds>  (1) 
9

>  <i_lp_mmshare_version>  (1) 
72125

>  <i_m_source_file_index>  (1) 
62

>  <i_f3d_flags>  (1) 
0

>  <num_sample>  (1) 
100

>  <b_lp_Chiralities_Consistent>  (1) 
1

>  <r_epik_Charging_Adjusted_Penalty>  (1) 
0.30587031255842323

>  <r_epik_Ionization_Penalty>  (1) 
0.15296771237530521

>  <r_epik_Ionization_Penalty_Charging>  (1) 
0.15296734445016963

>  <r_epik_Ionization_Penalty_Neutral>  (1) 
3.6792513557102453e-07

>  <r_epik_State_Penalty>  (1) 
0.15290296810825357

>  <r_glide_ring_energy>  (1) 
0

>  <r_i_docking_score>  (1) 
-5.0611986052831428

>  <r_i_glide_ecoul>  (1) 
-2.3077731846180605

>  <r_i_glide_eff_state_penalty>  (1) 
0.15290296810825357

>  <r_i_glide_einternal>  (1) 
7.022924974389495

>  <r_i_glide_emodel>  (1) 
-41.187437976845892

>  <r_i_glide_emodel_strain>  (1) 
0.95883231584208772

>  <r_i_glide_energy>  (1) 
-34.067469545197042

>  <r_i_glide_erotb>  (1) 
0.84742595842419921

>  <r_i_glide_esite>  (1) 
0

>  <r_i_glide_evdw>  (1) 
-31.759696360578982

>  <r_i_glide_gscore>  (1) 
-5.214101573391396

>  <r_i_glide_gscore_strain>  (1) 
0

>  <r_i_glide_hbond>  (1) 
-0.027145626425381573

>  <r_i_glide_ligand_efficiency>  (1) 
-0.20244794421132573

>  <r_i_glide_ligand_efficiency_ln>  (1) 
-1.1996557413351354

>  <r_i_glide_ligand_efficiency_sa>  (1) 
-0.59196137993864517

>  <r_i_glide_lipo>  (1) 
-2.3716234391580744

>  <r_i_glide_metal>  (1) 
-0

>  <r_i_glide_rewards>  (1) 
-1.7286076705104811

>  <r_lp_Energy>  (1) 
9.158987999999999

>  <s_epik_cmdline>  (1) 
J2VwaWtfcHl0aG9uJywgJy1waHQnLCAnMS4wJywgJy1waCcsICc3LjQnLCAnLXRuJywgJzgnLCAnLW1hJywgJzUwMCcsICctaW1hZScsICc8aW5maWxlLm1hZT4nLCAnLW9tYWUnLCAnPG91dGZpbGUubWFlPic=

>  <s_epik_input>  (1) 
W2NIXTFbY0hdb1tjSF1jMU4yW0NIMl1bQ0gyXVtDSF0oW0NIMl1bQ0gyXTIpW0NIMl1bQ0gyXVtDSDJdW0NASF0oW0NIMl0zKVNbQ0BASF0oW0NIMl1bT0hdKVtDQF0zKFtPSF0pQyg9TylbT0hd

>  <s_glide_docking_method>  (1) 
confgen

>  <s_i_glide_gridfile>  (1) 
gpcr_drd2_6luq_protein_autoprepared_prepared

>  <s_lp_Force_Field>  (1) 
S-OPLS

>  <s_lp_Variant>  (1) 
DiffSBDD_61_num_sample_100-1

>  <s_m_source_file>  (1) 
generated__ligand_DiffSBDD_2026-05-06_prepared.sdf

>  <GenAI_Model>  (1) 
DiffSBDD

>  <Protein>  (1) 
generic_title2

$$$$
DiffSBDD_9_num_sample_100
     RDKit          3D

  0  0  0  0  0  0  0  0  0  0999 V3000
M  V30 BEGIN CTAB
M  V30 COUNTS 39 39 0 0 1
M  V30 BEGIN ATOM
M  V30 1 C 9.999221 7.260526 -9.961019 0
M  V30 2 O 8.634840 5.769307 -7.322357 0
M  V30 3 O 9.034840 8.297304 -7.061697 0
M  V30 4 C 7.834839 3.752465 -14.852318 0
M  V30 5 C 12.842318 8.216368 -9.412435 0
M  V30 6 C 12.234836 6.531155 -2.576742 0
M  V30 7 C 11.098813 6.569301 -4.737752 0
M  V30 8 S 9.539157 6.923391 -7.210488 0
M  V30 9 C 7.302862 2.557444 -14.331539 0
M  V30 10 C 11.911091 7.828852 -8.266697 0
M  V30 11 C 10.483052 6.646643 -5.789248 0
M  V30 12 C 8.233049 6.917700 -11.728673 0
M  V30 13 C 7.703790 4.954749 -14.132284 0
M  V30 14 C 6.894017 6.265833 -12.115868 0
M  V30 15 C 7.037418 4.965363 -12.888054 0
M  V30 16 C 8.932883 6.294853 -10.501503 0
M  V30 17 F 8.473366 3.745320 -16.046284 0
M  V30 18 C 11.680256 6.551153 -3.664316 0
M  V30 19 C 6.634837 2.564888 -13.091673 0
M  V30 20 F 5.850289 3.770735 -11.180137 0
M  V30 21 C 6.499159 3.767494 -12.369691 0
M  V30 22 O 14.005933 7.769301 -9.378378 0
M  V30 23 O 12.376312 8.963191 -10.291666 0 CHG=-1
M  V30 24 C 10.719368 6.891148 -8.633002 0 CFG=2
M  V30 25 H 9.569688 8.257178 -9.846802 0
M  V30 26 H 10.715758 7.323985 -10.776107 0
M  V30 27 H 12.708029 6.489653 -1.622206 0
M  V30 28 H 7.405401 1.635331 -14.884267 0
M  V30 29 H 11.533515 8.763972 -7.851931 0
M  V30 30 H 12.522127 7.371790 -7.491666 0
M  V30 31 H 8.004219 7.957658 -11.491667 0
M  V30 32 H 8.915382 6.962456 -12.577238 0
M  V30 33 H 8.113690 5.869472 -14.534026 0
M  V30 34 H 6.276673 6.134417 -11.226075 0
M  V30 35 H 6.339823 6.955022 -12.753695 0
M  V30 36 H 9.378214 5.334374 -10.763186 0
M  V30 37 H 8.198562 6.089557 -9.729956 0
M  V30 38 H 6.224571 1.648322 -12.694049 0
M  V30 39 H 11.034839 5.855663 -8.691665 0
M  V30 END ATOM
M  V30 BEGIN BOND
M  V30 1 2 8 2
M  V30 2 2 8 3
M  V30 3 1 9 4
M  V30 4 1 10 5
M  V30 5 3 11 7
M  V30 6 1 11 8
M  V30 7 2 13 4
M  V30 8 1 14 12
M  V30 9 1 15 13
M  V30 10 1 15 14
M  V30 11 1 16 1
M  V30 12 1 16 12
M  V30 13 1 17 4
M  V30 14 3 18 6
M  V30 15 1 18 7
M  V30 16 2 19 9
M  V30 17 2 21 15
M  V30 18 1 21 19
M  V30 19 1 21 20
M  V30 20 2 22 5
M  V30 21 1 23 5
M  V30 22 1 24 1
M  V30 23 1 24 8
M  V30 24 1 24 10
M  V30 25 1 25 1
M  V30 26 1 26 1
M  V30 27 1 27 6
M  V30 28 1 28 9
M  V30 29 1 29 10
M  V30 30 1 30 10
M  V30 31 1 31 12
M  V30 32 1 32 12
M  V30 33 1 33 13
M  V30 34 1 34 14
M  V30 35 1 35 14
M  V30 36 1 36 16
M  V30 37 1 37 16
M  V30 38 1 38 19
M  V30 39 1 24 39 CFG=3
M  V30 END BOND
M  V30 END CTAB
M  END
>  <i_epik_Tot_Q>  (1) 
-1

>  <i_epik_Tot_abs_Q>  (1) 
1

>  <i_i_glide_confnum>  (1) 
376

>  <i_i_glide_lignum>  (1) 
15

>  <i_i_glide_posenum>  (1) 
53

>  <i_i_glide_rotatable_bonds>  (1) 
10

>  <i_lp_mmshare_version>  (1) 
72125

>  <i_m_source_file_index>  (1) 
10

>  <i_f3d_flags>  (1) 
0

>  <num_sample>  (1) 
100

>  <b_lp_Chiralities_Consistent>  (1) 
1

>  <r_epik_Charging_Adjusted_Penalty>  (1) 
0.0001073779662715613

>  <r_epik_Ionization_Penalty>  (1) 
0.0001073779662715613

>  <r_epik_Ionization_Penalty_Charging>  (1) 
0.0001073779662715613

>  <r_epik_Ionization_Penalty_Neutral>  (1) 
0

>  <r_epik_State_Penalty>  (1) 
-0

>  <r_glide_ring_energy>  (1) 
0

>  <r_i_docking_score>  (1) 
-5.0602664852264798

>  <r_i_glide_ecoul>  (1) 
-0.54196881482676895

>  <r_i_glide_eff_state_penalty>  (1) 
-0

>  <r_i_glide_einternal>  (1) 
7.1637605730937546

>  <r_i_glide_emodel>  (1) 
-37.740346792799507

>  <r_i_glide_emodel_strain>  (1) 
2.3404706372744983

>  <r_i_glide_energy>  (1) 
-34.773198093426188

>  <r_i_glide_erotb>  (1) 
1.2234298802473262

>  <r_i_glide_esite>  (1) 
-0.2235153416934654

>  <r_i_glide_evdw>  (1) 
-34.231229278599422

>  <r_i_glide_gscore>  (1) 
-5.0602664852264798

>  <r_i_glide_gscore_strain>  (1) 
0

>  <r_i_glide_hbond>  (1) 
0

>  <r_i_glide_ligand_efficiency>  (1) 
-0.21084443688443666

>  <r_i_glide_ligand_efficiency_ln>  (1) 
-1.2111539704133167

>  <r_i_glide_ligand_efficiency_sa>  (1) 
-0.60818059699657256

>  <r_i_glide_lipo>  (1) 
-2.0382550867993072

>  <r_i_glide_metal>  (1) 
-0

>  <r_i_glide_rewards>  (1) 
-2.2290691508270473

>  <r_lp_Energy>  (1) 
9.3765809999999998

>  <r_lp_tautomer_probability>  (1) 
1

>  <s_epik_cmdline>  (1) 
J2VwaWtfcHl0aG9uJywgJy1waHQnLCAnMS4wJywgJy1waCcsICc3LjQnLCAnLXRuJywgJzgnLCAnLW1hJywgJzUwMCcsICctaW1hZScsICc8aW5maWxlLm1hZT4nLCAnLW9tYWUnLCAnPG91dGZpbGUubWFlPic=

>  <s_epik_input>  (1) 
W0NIXSNDQyNDUyg9TykoPU8pW0NASF0oW0NIMl1DKD1PKVtPSF0pW0NIMl1bQ0gyXVtDSDJdW0NIMl1jKFtjSF0xKWMoRilbY0hdW2NIXWMxRg==

>  <s_glide_docking_method>  (1) 
confgen

>  <s_i_glide_gridfile>  (1) 
gpcr_drd2_6luq_protein_autoprepared_prepared

>  <s_lp_Force_Field>  (1) 
S-OPLS

>  <s_lp_Variant>  (1) 
DiffSBDD_9_num_sample_100-1

>  <s_m_source_file>  (1) 
generated__ligand_DiffSBDD_2026-05-06_prepared.sdf

>  <GenAI_Model>  (1) 
DiffSBDD

>  <Protein>  (1) 
generic_title2

$$$$
DiffSBDD_2_num_sample_100
     RDKit          3D

  0  0  0  0  0  0  0  0  0  0999 V3000
M  V30 BEGIN CTAB
M  V30 COUNTS 31 32 0 0 1
M  V30 BEGIN ATOM
M  V30 1 C 11.434838 7.216063 -4.544594 0
M  V30 2 C 8.962625 7.493077 -11.974623 0 CFG=2
M  V30 3 O 10.887775 8.672066 -6.846950 0
M  V30 4 C 9.810036 6.402771 -11.301738 0
M  V30 5 C 10.781362 6.635696 -5.671805 0
M  V30 6 O 11.834841 10.569299 -5.936297 0
M  V30 7 N 9.158539 5.801435 -10.149780 0
M  V30 8 C 12.724133 8.386194 -2.338299 0
M  V30 9 C 11.533160 9.386807 -5.829751 0
M  V30 10 C 9.891716 6.784592 -7.904945 0
M  V30 11 C 11.817600 8.563494 -4.596434 0
M  V30 12 C 10.527998 7.344943 -6.764470 0
M  V30 13 C 9.472203 6.268820 -8.927628 0
M  V30 14 O 8.634840 8.537110 -11.091667 0
M  V30 15 C 7.699651 6.967226 -12.667530 0
M  V30 16 C 12.467896 9.147214 -3.491648 0
M  V30 17 C 12.341876 7.037417 -2.291667 0
M  V30 18 C 11.699594 6.454501 -3.392539 0
M  V30 19 H 9.615415 7.969879 -12.691668 0
M  V30 20 H 10.040348 5.616550 -12.021793 0
M  V30 21 H 10.768496 6.835155 -11.008825 0
M  V30 22 H 10.502834 5.606891 -5.613048 0
M  V30 23 H 8.983249 4.811839 -10.246655 0
M  V30 24 H 13.222719 8.837744 -1.492428 0
M  V30 25 H 8.012104 8.187665 -10.434852 0
M  V30 26 H 7.946452 6.203430 -13.404749 0
M  V30 27 H 7.007816 6.527414 -11.947858 0
M  V30 28 H 7.174818 7.769244 -13.185796 0
M  V30 29 H 12.771708 10.169301 -3.528604 0
M  V30 30 H 12.546575 6.446046 -1.414947 0
M  V30 31 H 11.410010 5.419832 -3.354510 0
M  V30 END ATOM
M  V30 BEGIN BOND
M  V30 1 1 4 2
M  V30 2 1 5 1
M  V30 3 1 7 4
M  V30 4 1 9 3
M  V30 5 2 9 6
M  V30 6 1 11 1
M  V30 7 1 11 9
M  V30 8 1 12 3
M  V30 9 2 12 5
M  V30 10 1 12 10
M  V30 11 1 13 7
M  V30 12 3 13 10
M  V30 13 1 14 2
M  V30 14 1 15 2
M  V30 15 1 16 8
M  V30 16 2 16 11
M  V30 17 2 17 8
M  V30 18 2 18 1
M  V30 19 1 18 17
M  V30 20 1 2 19 CFG=3
M  V30 21 1 20 4
M  V30 22 1 21 4
M  V30 23 1 22 5
M  V30 24 1 23 7
M  V30 25 1 24 8
M  V30 26 1 25 14
M  V30 27 1 26 15
M  V30 28 1 27 15
M  V30 29 1 28 15
M  V30 30 1 29 16
M  V30 31 1 30 17
M  V30 32 1 31 18
M  V30 END BOND
M  V30 END CTAB
M  END
>  <i_epik_Tot_Q>  (1) 
0

>  <i_epik_Tot_abs_Q>  (1) 
0

>  <i_i_glide_confnum>  (1) 
8

>  <i_i_glide_lignum>  (1) 
4

>  <i_i_glide_posenum>  (1) 
13

>  <i_i_glide_rotatable_bonds>  (1) 
5

>  <i_lp_mmshare_version>  (1) 
72125

>  <i_m_source_file_index>  (1) 
3

>  <i_f3d_flags>  (1) 
0

>  <num_sample>  (1) 
100

>  <b_lp_Chiralities_Consistent>  (1) 
1

>  <r_epik_Charging_Adjusted_Penalty>  (1) 
0.030576885115692693

>  <r_epik_Ionization_Penalty>  (1) 
0.030576926290342817

>  <r_epik_Ionization_Penalty_Charging>  (1) 
0

>  <r_epik_Ionization_Penalty_Neutral>  (1) 
0.030576926290342817

>  <r_epik_State_Penalty>  (1) 
0.030576885115692693

>  <r_glide_ring_energy>  (1) 
0

>  <r_i_docking_score>  (1) 
-5.0539607739663808

>  <r_i_glide_ecoul>  (1) 
-7.3947944485227906

>  <r_i_glide_eff_state_penalty>  (1) 
0.030576885115692693

>  <r_i_glide_einternal>  (1) 
0.078285319488232474

>  <r_i_glide_emodel>  (1) 
-42.807124127799142

>  <r_i_glide_emodel_strain>  (1) 
0.2356619586132318

>  <r_i_glide_energy>  (1) 
-32.78566789066943

>  <r_i_glide_erotb>  (1) 
0.8801959699319355

>  <r_i_glide_esite>  (1) 
0

>  <r_i_glide_evdw>  (1) 
-25.390873442146642

>  <r_i_glide_gscore>  (1) 
-5.0845376590820734

>  <r_i_glide_gscore_strain>  (1) 
0

>  <r_i_glide_hbond>  (1) 
-0.14992348299569191

>  <r_i_glide_ligand_efficiency>  (1) 
-0.28077559855368783

>  <r_i_glide_ligand_efficiency_ln>  (1) 
-1.2990945566342127

>  <r_i_glide_ligand_efficiency_sa>  (1) 
-0.73584023361342932

>  <r_i_glide_lipo>  (1) 
-2.2855787384507478

>  <r_i_glide_metal>  (1) 
-0

>  <r_i_glide_rewards>  (1) 
-1.1504685681818185

>  <r_lp_Energy>  (1) 
10.004031999999999

>  <s_epik_cmdline>  (1) 
J2VwaWtfcHl0aG9uJywgJy1waHQnLCAnMS4wJywgJy1waCcsICc3LjQnLCAnLXRuJywgJzgnLCAnLW1hJywgJzUwMCcsICctaW1hZScsICc8aW5maWxlLm1hZT4nLCAnLW9tYWUnLCAnPG91dGZpbGUubWFlPic=

>  <s_epik_input>  (1) 
W2NIXTFbY0hdW2NIXVtjSF1jKGMxMiljKD1PKW9jKFtjSF0yKUMjQ1tOSF1bQ0gyXVtDQEhdKFtPSF0pW0NIM10=

>  <s_glide_docking_method>  (1) 
confgen

>  <s_i_glide_gridfile>  (1) 
gpcr_drd2_6luq_protein_autoprepared_prepared

>  <s_lp_Force_Field>  (1) 
S-OPLS

>  <s_lp_Variant>  (1) 
DiffSBDD_2_num_sample_100-1

>  <s_m_source_file>  (1) 
generated__ligand_DiffSBDD_2026-05-06_prepared.sdf

>  <GenAI_Model>  (1) 
DiffSBDD

>  <Protein>  (1) 
generic_title2

$$$$
DiffSBDD_45_num_sample_100
     RDKit          3D

  0  0  0  0  0  0  0  0  0  0999 V3000
M  V30 BEGIN CTAB
M  V30 COUNTS 63 65 0 0 1
M  V30 BEGIN ATOM
M  V30 1 C 11.506609 7.300106 -4.119509 0
M  V30 2 C 7.897817 4.192040 -13.024593 0
M  V30 3 C 11.828805 8.800703 -3.928071 0
M  V30 4 C 7.434167 1.850988 -16.129411 0 CFG=2
M  V30 5 C 7.383254 3.132014 -15.241345 0 CFG=1
M  V30 6 C 5.846870 0.304161 -14.850072 0
M  V30 7 C 11.585212 7.524174 -9.228150 0
M  V30 8 C 11.416028 7.499912 -6.637045 0 CFG=2
M  V30 9 O 12.786822 7.769291 -9.090548 0
M  V30 10 N 7.668604 2.945199 -13.802650 0
M  V30 11 Cl 8.604767 4.257039 -15.913008 0
M  V30 12 C 8.848781 6.086904 -10.147070 0 CFG=1
M  V30 13 C 9.037768 8.764513 -10.142304 0
M  V30 14 C 12.010895 9.528213 -5.244401 0
M  V30 15 C 9.380845 4.847052 -10.905887 0
M  V30 16 N 6.253364 0.969521 -16.098490 0
M  V30 17 C 8.883867 5.874059 -8.610613 0
M  V30 18 C 8.345070 3.922416 -11.566195 0
M  V30 19 C 11.835055 8.956670 -6.444517 0
M  V30 20 C 6.594636 2.138791 -13.218427 0
M  V30 21 C 9.547948 7.383583 -10.630708 0 CFG=1
M  V30 22 C 10.681058 7.307069 -7.972932 0 CFG=2
M  V30 23 F 8.531692 1.130406 -15.917427 0
M  V30 24 O 10.177245 5.974131 -8.029197 0
M  V30 25 C 10.661572 7.027162 -5.382860 0
M  V30 26 C 6.662216 0.656933 -13.601269 0
M  V30 27 N 11.006976 7.391489 -10.451833 0
M  V30 28 C 11.820054 7.367916 -11.673307 0
M  V30 29 H 11.035100 6.885166 -3.229802 0
M  V30 30 H 12.439668 6.751069 -4.207971 0
M  V30 31 H 7.009635 4.825212 -13.038579 0
M  V30 32 H 8.695030 4.778277 -13.478051 0
M  V30 33 H 12.733594 8.912839 -3.330145 0
M  V30 34 H 11.035340 9.320726 -3.388338 0
M  V30 35 H 7.535453 2.193729 -17.159788 0
M  V30 36 H 6.423199 3.631854 -15.364858 0
M  V30 37 H 5.896220 -0.775905 -14.989429 0
M  V30 38 H 4.793227 0.512612 -14.664479 0
M  V30 39 H 12.259345 6.834409 -6.699324 0
M  V30 40 H 7.799812 6.169175 -10.425696 0
M  V30 41 H 8.372821 9.279490 -10.835725 0
M  V30 42 H 8.634842 8.810964 -9.151467 0
M  V30 43 H 9.893697 9.369358 -9.891743 0
M  V30 44 H 12.295342 10.562766 -5.187581 0
M  V30 45 H 10.142651 5.100426 -11.640987 0
M  V30 46 H 9.877205 4.224701 -10.164898 0
M  V30 47 H 6.354774 0.261388 -16.819681 0
M  V30 48 H 8.478768 4.891046 -8.368303 0
M  V30 49 H 8.234857 6.569685 -8.092227 0
M  V30 50 H 8.853819 2.961357 -11.590398 0
M  V30 51 H 7.478582 3.818018 -10.914029 0
M  V30 52 H 11.985308 9.542094 -7.338076 0
M  V30 53 H 6.632044 2.177769 -12.138611 0
M  V30 54 H 5.619976 2.557604 -13.470785 0
M  V30 55 H 9.330277 7.406266 -11.699541 0
M  V30 56 H 9.884593 8.026343 -7.874081 0
M  V30 57 H 9.703282 7.538265 -5.326725 0
M  V30 58 H 10.446247 5.961245 -5.448396 0
M  V30 59 H 7.695811 0.322957 -13.691054 0
M  V30 60 H 6.250169 0.076299 -12.775632 0
M  V30 61 H 12.232854 6.382695 -11.891543 0
M  V30 62 H 11.225099 7.556339 -12.567383 0
M  V30 63 H 12.662826 8.056251 -11.596549 0
M  V30 END ATOM
M  V30 BEGIN BOND
M  V30 1 1 3 1
M  V30 2 1 5 4
M  V30 3 2 9 7
M  V30 4 1 10 2
M  V30 5 1 10 5
M  V30 6 1 11 5
M  V30 7 1 14 3
M  V30 8 1 15 12
M  V30 9 1 16 4
M  V30 10 1 16 6
M  V30 11 1 17 12
M  V30 12 1 18 2
M  V30 13 1 18 15
M  V30 14 1 19 8
M  V30 15 2 19 14
M  V30 16 1 20 10
M  V30 17 1 21 12
M  V30 18 1 21 13
M  V30 19 1 22 7
M  V30 20 1 22 8
M  V30 21 1 23 4
M  V30 22 1 24 17
M  V30 23 1 24 22
M  V30 24 1 25 1
M  V30 25 1 25 8
M  V30 26 1 26 6
M  V30 27 1 26 20
M  V30 28 1 27 7
M  V30 29 1 27 21
M  V30 30 1 28 27
M  V30 31 1 29 1
M  V30 32 1 30 1
M  V30 33 1 31 2
M  V30 34 1 32 2
M  V30 35 1 33 3
M  V30 36 1 34 3
M  V30 37 1 4 35 CFG=3
M  V30 38 1 5 36 CFG=1
M  V30 39 1 37 6
M  V30 40 1 38 6
M  V30 41 1 8 39 CFG=3
M  V30 42 1 12 40 CFG=3
M  V30 43 1 41 13
M  V30 44 1 42 13
M  V30 45 1 43 13
M  V30 46 1 44 14
M  V30 47 1 45 15
M  V30 48 1 46 15
M  V30 49 1 47 16
M  V30 50 1 48 17
M  V30 51 1 49 17
M  V30 52 1 50 18
M  V30 53 1 51 18
M  V30 54 1 52 19
M  V30 55 1 53 20
M  V30 56 1 54 20
M  V30 57 1 21 55 CFG=3
M  V30 58 1 22 56 CFG=3
M  V30 59 1 57 25
M  V30 60 1 58 25
M  V30 61 1 59 26
M  V30 62 1 60 26
M  V30 63 1 61 28
M  V30 64 1 62 28
M  V30 65 1 63 28
M  V30 END BOND
M  V30 END CTAB
M  END
>  <i_epik_Tot_Q>  (1) 
0

>  <i_epik_Tot_abs_Q>  (1) 
0

>  <i_i_glide_confnum>  (1) 
362

>  <i_i_glide_lignum>  (1) 
85

>  <i_i_glide_posenum>  (1) 
182

>  <i_i_glide_rotatable_bonds>  (1) 
5

>  <i_lp_mmshare_version>  (1) 
72125

>  <i_m_source_file_index>  (1) 
46

>  <i_f3d_flags>  (1) 
0

>  <num_sample>  (1) 
100

>  <b_lp_Chiralities_Consistent>  (1) 
1

>  <r_epik_Charging_Adjusted_Penalty>  (1) 
0.015133208647659156

>  <r_epik_Ionization_Penalty>  (1) 
0.015206278080010002

>  <r_epik_Ionization_Penalty_Charging>  (1) 
0

>  <r_epik_Ionization_Penalty_Neutral>  (1) 
0.015206278080010002

>  <r_epik_State_Penalty>  (1) 
0.015133208647659156

>  <r_glide_ring_energy>  (1) 
1.0230861274519929

>  <r_i_docking_score>  (1) 
-5.0538014026382463

>  <r_i_glide_ecoul>  (1) 
-1.3998797413467643

>  <r_i_glide_eff_state_penalty>  (1) 
0.015133208647659156

>  <r_i_glide_einternal>  (1) 
9.2398387944885556

>  <r_i_glide_emodel>  (1) 
-20.681485556396499

>  <r_i_glide_emodel_strain>  (1) 
3.3145210533533458

>  <r_i_glide_energy>  (1) 
-23.2314482391151

>  <r_i_glide_erotb>  (1) 
0.45657733151366331

>  <r_i_glide_esite>  (1) 
0

>  <r_i_glide_evdw>  (1) 
-21.831568497768334

>  <r_i_glide_gscore>  (1) 
-5.0689346112859051

>  <r_i_glide_gscore_strain>  (1) 
0

>  <r_i_glide_hbond>  (1) 
0

>  <r_i_glide_ligand_efficiency>  (1) 
-0.18049290723708022

>  <r_i_glide_ligand_efficiency_ln>  (1) 
-1.1665657497858657

>  <r_i_glide_ligand_efficiency_sa>  (1) 
-0.54808277161789487

>  <r_i_glide_lipo>  (1) 
-2.5676244315253798

>  <r_i_glide_metal>  (1) 
-0

>  <r_i_glide_rewards>  (1) 
-1.6563271251837572

>  <r_lp_Energy>  (1) 
32.929097999999996

>  <s_epik_cmdline>  (1) 
J2VwaWtfcHl0aG9uJywgJy1waHQnLCAnMS4wJywgJy1waCcsICc3LjQnLCAnLXRuJywgJzgnLCAnLW1hJywgJzUwMCcsICctaW1hZScsICc8aW5maWxlLm1hZT4nLCAnLW9tYWUnLCAnPG91dGZpbGUubWFlPic=

>  <s_epik_input>  (1) 
W0NIMl0xW0NIMl1bQ0gyXVtDSF09W0NIXVtDQEhdMVtDQEBIXShDMj1PKU9bQ0gyXVtDQEBIXShbQ0BASF0oW0NIM10pTjJbQ0gzXSlbQ0gyXVtDSDJdW0NIMl1OKFtDQEBIXShDbClbQ0BASF0zRilbQ0gyXVtDSDJdW0NIMl1bTkhdMw==

>  <s_glide_docking_method>  (1) 
confgen

>  <s_i_glide_gridfile>  (1) 
gpcr_drd2_6luq_protein_autoprepared_prepared

>  <s_lp_Force_Field>  (1) 
S-OPLS

>  <s_lp_Variant>  (1) 
DiffSBDD_45_num_sample_100-4

>  <s_m_source_file>  (1) 
generated__ligand_DiffSBDD_2026-05-06_prepared.sdf

>  <GenAI_Model>  (1) 
DiffSBDD

>  <Protein>  (1) 
generic_title2

$$$$
DiffSBDD_44_num_sample_100
     RDKit          3D

  0  0  0  0  0  0  0  0  0  0999 V3000
M  V30 BEGIN CTAB
M  V30 COUNTS 56 58 0 0 1
M  V30 BEGIN ATOM
M  V30 1 C 12.712364 6.976997 -17.984160 0
M  V30 2 C 12.380642 5.651314 -17.253536 0 CFG=1
M  V30 3 C 11.247114 7.851213 -9.862135 0
M  V30 4 C 10.888709 7.573910 -7.076167 0
M  V30 5 C 10.069956 6.847608 -7.960214 0
M  V30 6 C 8.206644 5.248078 -14.779556 0
M  V30 7 C 13.147398 4.509465 -17.917859 0
M  V30 8 N 12.997006 5.567478 -15.891668 0 CFG=1 CHG=1
M  V30 9 C 8.747829 4.628405 -13.479983 0
M  V30 10 C 9.318292 6.307825 -11.592008 0
M  V30 11 O 10.012493 7.049205 -12.282980 0
M  V30 12 C 11.880069 8.433598 -7.579213 0
M  V30 13 N 10.716678 7.439724 -5.700213 0
M  V30 14 C 14.396404 4.065993 -17.200055 0
M  V30 15 N 9.368180 6.204327 -10.252847 0
M  V30 16 C 8.833389 4.666816 -16.054712 0
M  V30 17 O 10.221756 5.517497 -18.336690 0
M  V30 18 C 8.007142 4.483695 -10.993806 0
M  V30 19 C 14.377791 5.024672 -16.005802 0
M  V30 20 N 10.263991 4.969307 -16.141535 0
M  V30 21 C 12.884294 6.758212 -15.019520 0
M  V30 22 C 8.286011 5.390834 -12.220257 0 CFG=2
M  V30 23 C 8.437461 5.241454 -9.707845 0
M  V30 24 C 10.237225 6.978343 -9.363424 0
M  V30 25 C 10.850147 5.369291 -17.288772 0
M  V30 26 C 12.059607 8.569301 -8.966605 0
M  V30 27 O 12.782435 3.990802 -18.971508 0
M  V30 28 H 12.366796 6.960738 -19.019332 0
M  V30 29 H 12.234859 7.833082 -17.508401 0
M  V30 30 H 13.784659 7.174254 -18.010622 0
M  V30 31 H 11.412077 7.972724 -10.909820 0
M  V30 32 H 9.309710 6.193769 -7.561450 0
M  V30 33 H 7.128806 5.083973 -14.814991 0
M  V30 34 H 8.325529 6.329395 -14.769599 0
M  V30 35 H 9.834845 4.580397 -13.500553 0
M  V30 36 H 8.412910 3.591557 -13.431314 0
M  V30 37 H 12.508157 8.989816 -6.899302 0
M  V30 38 H 11.236442 8.009047 -5.049677 0
M  V30 39 H 9.958108 6.889574 -5.319690 0
M  V30 40 H 14.291930 3.025766 -16.889575 0
M  V30 41 H 15.287080 4.176160 -17.818500 0
M  V30 42 H 8.703215 3.584120 -16.075842 0
M  V30 43 H 8.280783 5.056787 -16.911731 0
M  V30 44 H 6.965879 4.164501 -10.943872 0
M  V30 45 H 8.634388 3.594919 -11.091634 0
M  V30 46 H 14.667474 4.511078 -15.091671 0
M  V30 47 H 15.086803 5.838092 -16.170809 0
M  V30 48 H 10.815750 4.868909 -15.302864 0
M  V30 49 H 13.358145 7.639575 -15.452343 0
M  V30 50 H 11.834846 6.969298 -14.828046 0
M  V30 51 H 13.351373 6.569471 -14.053507 0
M  V30 52 H 7.394482 5.985177 -12.426542 0
M  V30 53 H 8.896922 4.569298 -8.984877 0
M  V30 54 H 7.595498 5.754599 -9.242276 0
M  V30 55 H 12.824888 9.228587 -9.347537 0
M  V30 56 H 12.502891 4.828998 -15.404995 0
M  V30 END ATOM
M  V30 BEGIN BOND
M  V30 1 1 2 1 CFG=3
M  V30 2 2 5 4
M  V30 3 1 7 2
M  V30 4 1 8 2
M  V30 5 1 9 6
M  V30 6 2 11 10
M  V30 7 1 12 4
M  V30 8 1 13 4
M  V30 9 1 14 7
M  V30 10 1 15 10
M  V30 11 1 16 6
M  V30 12 1 19 8
M  V30 13 1 19 14
M  V30 14 1 20 16
M  V30 15 1 21 8
M  V30 16 1 22 9
M  V30 17 1 22 10
M  V30 18 1 22 18
M  V30 19 1 23 15
M  V30 20 1 23 18
M  V30 21 2 24 3
M  V30 22 1 24 5
M  V30 23 1 24 15
M  V30 24 1 25 2
M  V30 25 2 25 17
M  V30 26 1 25 20
M  V30 27 1 26 3
M  V30 28 2 26 12
M  V30 29 2 27 7
M  V30 30 1 28 1
M  V30 31 1 29 1
M  V30 32 1 30 1
M  V30 33 1 31 3
M  V30 34 1 32 5
M  V30 35 1 33 6
M  V30 36 1 34 6
M  V30 37 1 35 9
M  V30 38 1 36 9
M  V30 39 1 37 12
M  V30 40 1 38 13
M  V30 41 1 39 13
M  V30 42 1 40 14
M  V30 43 1 41 14
M  V30 44 1 42 16
M  V30 45 1 43 16
M  V30 46 1 44 18
M  V30 47 1 45 18
M  V30 48 1 46 19
M  V30 49 1 47 19
M  V30 50 1 48 20
M  V30 51 1 49 21
M  V30 52 1 50 21
M  V30 53 1 51 21
M  V30 54 1 22 52 CFG=3
M  V30 55 1 53 23
M  V30 56 1 54 23
M  V30 57 1 55 26
M  V30 58 1 8 56 CFG=1
M  V30 END BOND
M  V30 END CTAB
M  END
>  <i_epik_Tot_Q>  (1) 
1

>  <i_epik_Tot_abs_Q>  (1) 
1

>  <i_i_glide_confnum>  (1) 
42

>  <i_i_glide_lignum>  (1) 
81

>  <i_i_glide_posenum>  (1) 
310

>  <i_i_glide_rotatable_bonds>  (1) 
7

>  <i_lp_mmshare_version>  (1) 
72125

>  <i_m_source_file_index>  (1) 
45

>  <i_f3d_flags>  (1) 
0

>  <num_sample>  (1) 
100

>  <b_lp_Chiralities_Consistent>  (1) 
1

>  <r_epik_Charging_Adjusted_Penalty>  (1) 
0.87787264938008924

>  <r_epik_Ionization_Penalty>  (1) 
0.44040452980928141

>  <r_epik_Ionization_Penalty_Charging>  (1) 
0.43893632469004462

>  <r_epik_Ionization_Penalty_Neutral>  (1) 
0.0014682051192367804

>  <r_epik_State_Penalty>  (1) 
0.43893632469004457

>  <r_glide_ring_energy>  (1) 
0

>  <r_i_docking_score>  (1) 
-5.0531920694215824

>  <r_i_glide_ecoul>  (1) 
-7.1166387031909304

>  <r_i_glide_eff_state_penalty>  (1) 
0.43893632469004457

>  <r_i_glide_einternal>  (1) 
8.4691883990276224

>  <r_i_glide_emodel>  (1) 
-48.970006337107463

>  <r_i_glide_emodel_strain>  (1) 
0.98024407428844995

>  <r_i_glide_energy>  (1) 
-42.663647874744221

>  <r_i_glide_erotb>  (1) 
0.96983297192060391

>  <r_i_glide_esite>  (1) 
-0.097700251676118122

>  <r_i_glide_evdw>  (1) 
-35.547009171553292

>  <r_i_glide_gscore>  (1) 
-5.492128394111627

>  <r_i_glide_gscore_strain>  (1) 
0

>  <r_i_glide_hbond>  (1) 
-0.10543473047217918

>  <r_i_glide_ligand_efficiency>  (1) 
-0.18715526183042897

>  <r_i_glide_ligand_efficiency_ln>  (1) 
-1.1762998053791762

>  <r_i_glide_ligand_efficiency_sa>  (1) 
-0.56146578549128701

>  <r_i_glide_lipo>  (1) 
-1.6297548032043505

>  <r_i_glide_metal>  (1) 
-0

>  <r_i_glide_rewards>  (1) 
-1.784225316623278

>  <r_lp_Energy>  (1) 
28.974819999999998

>  <r_lp_tautomer_probability>  (1) 
0.99995000000000001

>  <s_epik_cmdline>  (1) 
J2VwaWtfcHl0aG9uJywgJy1waHQnLCAnMS4wJywgJy1waCcsICc3LjQnLCAnLXRuJywgJzgnLCAnLW1hJywgJzUwMCcsICctaW1hZScsICc8aW5maWxlLm1hZT4nLCAnLW9tYWUnLCAnPG91dGZpbGUubWFlPic=

>  <s_epik_input>  (1) 
W0NIM11OMVtDSDJdW0NIMl1DKD1PKVtDQEBdMShbQ0gzXSlDKD1PKVtOSF1bQ0gyXVtDSDJdW0NIMl1bQ0BASF0yW0NIMl1bQ0gyXU4oQzI9TyljKFtjSF1bY0hdW2NIXTMpW2NIXWMzW05IMl0=

>  <s_glide_docking_method>  (1) 
confgen

>  <s_i_glide_gridfile>  (1) 
gpcr_drd2_6luq_protein_autoprepared_prepared

>  <s_lp_Force_Field>  (1) 
S-OPLS

>  <s_lp_Variant>  (1) 
DiffSBDD_44_num_sample_100-6

>  <s_m_source_file>  (1) 
generated__ligand_DiffSBDD_2026-05-06_prepared.sdf

>  <GenAI_Model>  (1) 
DiffSBDD

>  <Protein>  (1) 
generic_title2

$$$$
DiffSBDD_83_num_sample_100
     RDKit          3D

  0  0  0  0  0  0  0  0  0  0999 V3000
M  V30 BEGIN CTAB
M  V30 COUNTS 48 52 0 0 1
M  V30 BEGIN ATOM
M  V30 1 C 9.834923 7.063506 -10.239855 0
M  V30 2 C 5.277198 8.311865 -16.389670 0
M  V30 3 C 6.543077 6.236647 -16.608700 0 CFG=1
M  V30 4 C 5.953830 4.865999 -13.061636 0
M  V30 5 C 5.849429 6.003120 -15.284257 0 CFG=2
M  V30 6 N 7.301279 4.969303 -10.738233 0
M  V30 7 C 5.786992 6.438736 -17.898840 0
M  V30 8 C 10.675783 7.670515 -8.028862 0
M  V30 9 C 6.234948 7.393539 -15.698087 0 CFG=2
M  V30 10 C 6.537038 5.402825 -14.122666 0
M  V30 11 C 11.356060 8.670376 -7.110842 0
M  V30 12 C 8.783283 4.784186 -10.662261 0 CFG=1
M  V30 13 C 9.644073 5.487096 -8.384983 0
M  V30 14 C 7.888258 5.347214 -13.925199 0
M  V30 15 C 10.456161 7.993985 -9.384167 0
M  V30 16 C 4.743706 7.529628 -17.605973 0
M  V30 17 C 9.421393 4.656818 -12.092422 0
M  V30 18 C 10.264770 6.416122 -7.530299 0
M  V30 19 C 8.132755 4.770077 -12.766393 0
M  V30 20 C 10.642135 8.844085 -5.762086 0
M  V30 21 O 11.165249 9.969845 -5.087454 0
M  V30 22 C 6.926581 4.289849 -11.967373 0 CFG=2
M  V30 23 C 9.434794 5.803150 -9.742179 0
M  V30 24 H 9.668126 7.314983 -11.276278 0
M  V30 25 H 4.481382 8.621823 -15.712552 0
M  V30 26 H 5.834800 9.198880 -16.691787 0
M  V30 27 H 7.571854 5.895262 -16.705145 0
M  V30 28 H 4.885745 4.790527 -12.940821 0
M  V30 29 H 4.788415 5.769314 -15.310720 0
M  V30 30 H 7.091691 5.963373 -10.736778 0
M  V30 31 H 5.336274 5.505850 -18.239010 0
M  V30 32 H 6.487077 6.779485 -18.661929 0
M  V30 33 H 7.038318 7.872028 -15.142000 0
M  V30 34 H 11.434853 9.629169 -7.621127 0
M  V30 35 H 12.382498 8.347327 -6.957317 0
M  V30 36 H 8.949708 3.800495 -10.236195 0
M  V30 37 H 9.333137 4.528070 -8.001545 0
M  V30 38 H 8.633893 5.775105 -14.578742 0
M  V30 39 H 10.766072 8.954734 -9.767881 0
M  V30 40 H 3.793810 7.061631 -17.342356 0
M  V30 41 H 4.562385 8.168649 -18.470327 0
M  V30 42 H 10.116819 5.441360 -12.387578 0
M  V30 43 H 9.861981 3.674307 -12.261541 0
M  V30 44 H 10.428399 6.164167 -6.493171 0
M  V30 45 H 10.771852 7.963789 -5.132224 0
M  V30 46 H 9.569199 8.969306 -5.912826 0
M  V30 47 H 11.010337 10.739411 -5.614121 0
M  V30 48 H 6.904075 3.203850 -11.891708 0
M  V30 END ATOM
M  V30 BEGIN BOND
M  V30 1 1 5 3
M  V30 2 1 7 3
M  V30 3 1 9 2
M  V30 4 1 9 3
M  V30 5 1 9 5
M  V30 6 2 10 4
M  V30 7 1 10 5
M  V30 8 1 11 8
M  V30 9 1 12 6
M  V30 10 1 14 10
M  V30 11 2 15 1
M  V30 12 1 15 8
M  V30 13 1 16 2
M  V30 14 1 16 7
M  V30 15 1 17 12
M  V30 16 2 18 8
M  V30 17 1 18 13
M  V30 18 2 19 14
M  V30 19 1 19 17
M  V30 20 1 20 11
M  V30 21 1 21 20
M  V30 22 1 22 4
M  V30 23 1 22 6
M  V30 24 1 22 19
M  V30 25 1 23 1
M  V30 26 1 23 12
M  V30 27 2 23 13
M  V30 28 1 24 1
M  V30 29 1 25 2
M  V30 30 1 26 2
M  V30 31 1 3 27 CFG=3
M  V30 32 1 28 4
M  V30 33 1 5 29 CFG=3
M  V30 34 1 30 6
M  V30 35 1 31 7
M  V30 36 1 32 7
M  V30 37 1 9 33 CFG=1
M  V30 38 1 34 11
M  V30 39 1 35 11
M  V30 40 1 12 36 CFG=1
M  V30 41 1 37 13
M  V30 42 1 38 14
M  V30 43 1 39 15
M  V30 44 1 40 16
M  V30 45 1 41 16
M  V30 46 1 42 17
M  V30 47 1 43 17
M  V30 48 1 44 18
M  V30 49 1 45 20
M  V30 50 1 46 20
M  V30 51 1 47 21
M  V30 52 1 22 48 CFG=1
M  V30 END BOND
M  V30 END CTAB
M  END
>  <i_epik_Tot_Q>  (1) 
0

>  <i_epik_Tot_abs_Q>  (1) 
0

>  <i_i_glide_confnum>  (1) 
153

>  <i_i_glide_lignum>  (1) 
171

>  <i_i_glide_posenum>  (1) 
52

>  <i_i_glide_rotatable_bonds>  (1) 
5

>  <i_lp_mmshare_version>  (1) 
72125

>  <i_m_source_file_index>  (1) 
84

>  <i_f3d_flags>  (1) 
0

>  <num_sample>  (1) 
100

>  <b_lp_Chiralities_Consistent>  (1) 
1

>  <r_epik_Charging_Adjusted_Penalty>  (1) 
0.79484472859609101

>  <r_epik_Ionization_Penalty>  (1) 
0.79484480768617471

>  <r_epik_Ionization_Penalty_Charging>  (1) 
0

>  <r_epik_Ionization_Penalty_Neutral>  (1) 
0.79484480768617471

>  <r_epik_State_Penalty>  (1) 
0.79484472859609101

>  <r_glide_ring_energy>  (1) 
0

>  <r_i_docking_score>  (1) 
-5.0531909848403558

>  <r_i_glide_ecoul>  (1) 
-0.085734614626401473

>  <r_i_glide_eff_state_penalty>  (1) 
0.79484472859609101

>  <r_i_glide_einternal>  (1) 
2.5557139595426719

>  <r_i_glide_emodel>  (1) 
-43.276509637561517

>  <r_i_glide_emodel_strain>  (1) 
0.75744151793006154

>  <r_i_glide_energy>  (1) 
-34.31433960506326

>  <r_i_glide_erotb>  (1) 
0.7823539513187745

>  <r_i_glide_esite>  (1) 
0

>  <r_i_glide_evdw>  (1) 
-34.228604990436857

>  <r_i_glide_gscore>  (1) 
-5.8480357134364471

>  <r_i_glide_gscore_strain>  (1) 
0

>  <r_i_glide_hbond>  (1) 
-0.049200224050491875

>  <r_i_glide_ligand_efficiency>  (1) 
-0.21970395586262417

>  <r_i_glide_ligand_efficiency_ln>  (1) 
-1.2219073999369676

>  <r_i_glide_ligand_efficiency_sa>  (1) 
-0.62480882542048266

>  <r_i_glide_lipo>  (1) 
-2.6439864989889252

>  <r_i_glide_metal>  (1) 
-0

>  <r_i_glide_rewards>  (1) 
-2.2129125000000012

>  <r_lp_Energy>  (1) 
31.713768999999999

>  <s_epik_cmdline>  (1) 
J2VwaWtfcHl0aG9uJywgJy1waHQnLCAnMS4wJywgJy1waCcsICc3LjQnLCAnLXRuJywgJzgnLCAnLW1hJywgJzUwMCcsICctaW1hZScsICc8aW5maWxlLm1hZT4nLCAnLW9tYWUnLCAnPG91dGZpbGUubWFlPic=

>  <s_epik_input>  (1) 
W09IXVtDSDJdW0NIMl1jMVtjSF1bY0hdYyhbY0hdW2NIXTEpW0NASF0oW0NIMl0yKVtOSF1bQ0BIXShDMjMpW0NIXT1DKFtDSF09MylbQ0BIXTRbQ0BASF0oW0NAQEhdNDUpW0NIMl1bQ0gyXVtDSDJdNQ==

>  <s_glide_docking_method>  (1) 
confgen

>  <s_i_glide_gridfile>  (1) 
gpcr_drd2_6luq_protein_autoprepared_prepared

>  <s_lp_Force_Field>  (1) 
S-OPLS

>  <s_lp_Variant>  (1) 
DiffSBDD_83_num_sample_100-3

>  <s_m_source_file>  (1) 
generated__ligand_DiffSBDD_2026-05-06_prepared.sdf

>  <GenAI_Model>  (1) 
DiffSBDD

>  <Protein>  (1) 
generic_title2

$$$$
DiffSBDD_21_num_sample_100
     RDKit          3D

  0  0  0  0  0  0  0  0  0  0999 V3000
M  V30 BEGIN CTAB
M  V30 COUNTS 68 72 0 0 1
M  V30 BEGIN ATOM
M  V30 1 C 8.320895 3.112869 -20.879489 0
M  V30 2 C 7.319188 2.061695 -16.311045 0
M  V30 3 C 10.957804 7.425388 -9.420755 0
M  V30 4 C 9.943783 0.538542 -19.001101 0 CFG=2
M  V30 5 C 7.875257 5.769298 -11.123190 0
M  V30 6 C 7.834636 3.340215 -14.281064 0
M  V30 7 C 8.823003 -0.429213 -18.502585 0
M  V30 8 O 5.970577 0.018416 -16.287990 0
M  V30 9 C 9.196002 6.141191 -8.327103 0
M  V30 10 C 10.238113 0.177851 -20.473292 0
M  V30 11 C 7.434848 3.257853 -17.082516 0
M  V30 12 O 8.022315 3.379917 -12.919897 0
M  V30 13 C 8.234904 -0.210300 -17.085722 0
M  V30 14 F 11.590838 7.837923 -10.543953 0
M  V30 15 C 9.217426 3.994864 -12.451682 0
M  V30 16 C 11.987264 2.854532 -18.379273 0
M  V30 17 C 7.946633 4.517283 -15.051518 0
M  V30 18 C 10.777812 7.423327 -6.988667 0
M  V30 19 F 11.743861 3.097821 -17.091679 0
M  V30 20 S 11.430931 0.169333 -18.008106 0
M  V30 21 C 7.212978 3.246054 -18.597592 0
M  V30 22 C 7.749016 4.475307 -16.441881 0
M  V30 23 O 7.405479 0.981793 -14.152478 0
M  V30 24 C 6.988362 0.717195 -16.985430 0 CFG=2
M  V30 25 F 11.226486 7.835689 -5.779121 0
M  V30 26 C 11.424592 7.849476 -8.161106 0
M  V30 27 C 12.589556 1.456168 -18.539400 0
M  V30 28 F 12.883920 3.745193 -18.802986 0
M  V30 29 C 10.701192 3.043172 -19.195269 0
M  V30 30 C 9.666452 6.569301 -7.071477 0
M  V30 31 C 9.325404 6.123634 -10.869711 0 CFG=1
M  V30 32 C 9.568015 2.048332 -18.833927 0 CFG=1
M  V30 33 C 8.198444 2.444718 -19.493078 0 CFG=2
M  V30 34 C 9.834832 6.569299 -9.516384 0
M  V30 35 C 8.925497 4.688688 -11.142525 0 CFG=1
M  V30 36 C 7.518181 2.116414 -14.905899 0
M  V30 37 H 8.750295 4.113028 -20.815864 0
M  V30 38 H 8.938160 2.528653 -21.560791 0
M  V30 39 H 7.340292 3.216000 -21.345635 0
M  V30 40 H 7.447844 6.064085 -12.079209 0
M  V30 41 H 7.175027 5.768875 -10.291611 0
M  V30 42 H 9.252853 -1.430652 -18.508670 0
M  V30 43 H 8.007933 -0.508074 -19.221448 0
M  V30 44 H 5.760005 -0.772754 -16.762973 0
M  V30 45 H 8.337226 5.488632 -8.380191 0
M  V30 46 H 9.351528 0.284403 -21.097505 0
M  V30 47 H 11.019871 0.796503 -20.910040 0
M  V30 48 H 10.564416 -0.858298 -20.565381 0
M  V30 49 H 9.009340 0.097808 -16.384820 0
M  V30 50 H 7.950318 -1.203545 -16.734030 0
M  V30 51 H 9.959864 3.216053 -12.291661 0
M  V30 52 H 9.663089 4.706708 -13.145831 0
M  V30 53 H 8.180480 5.456531 -14.573048 0
M  V30 54 H 6.186045 2.940143 -18.801592 0
M  V30 55 H 7.242685 4.287799 -18.918953 0
M  V30 56 H 7.835439 5.382778 -17.021481 0
M  V30 57 H 6.931248 0.315057 -14.637518 0
M  V30 58 H 6.546207 0.860621 -17.966279 0
M  V30 59 H 12.281010 8.503883 -8.096793 0
M  V30 60 H 13.498993 1.367624 -17.944676 0
M  V30 61 H 12.874467 1.277804 -19.575845 0
M  V30 62 H 10.345053 4.060250 -19.026514 0
M  V30 63 H 10.944202 2.982243 -20.255781 0
M  V30 64 H 9.169514 6.241928 -6.170005 0
M  V30 65 H 9.827787 6.659427 -11.672455 0
M  V30 66 H 9.493338 2.153700 -17.758407 0
M  V30 67 H 7.667794 1.526916 -19.718097 0
M  V30 68 H 8.907710 4.016801 -10.291667 0
M  V30 END ATOM
M  V30 BEGIN BOND
M  V30 1 1 7 4
M  V30 2 1 4 10 CFG=3
M  V30 3 2 11 2
M  V30 4 1 12 6
M  V30 5 1 13 7
M  V30 6 1 14 3
M  V30 7 1 15 12
M  V30 8 1 17 6
M  V30 9 1 19 16
M  V30 10 1 20 4
M  V30 11 1 21 11
M  V30 12 1 22 11
M  V30 13 2 22 17
M  V30 14 1 24 2
M  V30 15 1 24 8
M  V30 16 1 24 13
M  V30 17 1 25 18
M  V30 18 1 26 3
M  V30 19 2 26 18
M  V30 20 1 27 16
M  V30 21 1 27 20
M  V30 22 1 28 16
M  V30 23 1 29 16
M  V30 24 2 30 9
M  V30 25 1 30 18
M  V30 26 1 31 5
M  V30 27 1 32 4
M  V30 28 1 32 29
M  V30 29 1 33 1
M  V30 30 1 33 21
M  V30 31 1 33 32
M  V30 32 2 34 3
M  V30 33 1 34 9
M  V30 34 1 34 31
M  V30 35 1 35 5
M  V30 36 1 35 15
M  V30 37 1 35 31
M  V30 38 1 36 2
M  V30 39 2 36 6
M  V30 40 1 36 23
M  V30 41 1 37 1
M  V30 42 1 38 1
M  V30 43 1 39 1
M  V30 44 1 40 5
M  V30 45 1 41 5
M  V30 46 1 42 7
M  V30 47 1 43 7
M  V30 48 1 44 8
M  V30 49 1 45 9
M  V30 50 1 46 10
M  V30 51 1 47 10
M  V30 52 1 48 10
M  V30 53 1 49 13
M  V30 54 1 50 13
M  V30 55 1 51 15
M  V30 56 1 52 15
M  V30 57 1 53 17
M  V30 58 1 54 21
M  V30 59 1 55 21
M  V30 60 1 56 22
M  V30 61 1 57 23
M  V30 62 1 24 58 CFG=3
M  V30 63 1 59 26
M  V30 64 1 60 27
M  V30 65 1 61 27
M  V30 66 1 62 29
M  V30 67 1 63 29
M  V30 68 1 64 30
M  V30 69 1 31 65 CFG=3
M  V30 70 1 32 66 CFG=1
M  V30 71 1 33 67 CFG=3
M  V30 72 1 35 68 CFG=1
M  V30 END BOND
M  V30 END CTAB
M  END
>  <i_epik_Tot_Q>  (1) 
0

>  <i_epik_Tot_abs_Q>  (1) 
0

>  <i_i_glide_confnum>  (1) 
68

>  <i_i_glide_lignum>  (1) 
33

>  <i_i_glide_posenum>  (1) 
259

>  <i_i_glide_rotatable_bonds>  (1) 
6

>  <i_lp_mmshare_version>  (1) 
72125

>  <i_m_source_file_index>  (1) 
22

>  <i_f3d_flags>  (1) 
0

>  <num_sample>  (1) 
100

>  <b_lp_Chiralities_Consistent>  (1) 
1

>  <r_epik_Charging_Adjusted_Penalty>  (1) 
0

>  <r_epik_Ionization_Penalty>  (1) 
0.0009051571753108589

>  <r_epik_Ionization_Penalty_Charging>  (1) 
0

>  <r_epik_Ionization_Penalty_Neutral>  (1) 
0.0009051571753108589

>  <r_epik_State_Penalty>  (1) 
-0

>  <r_glide_ring_energy>  (1) 
0

>  <r_i_docking_score>  (1) 
-5.0444903264121006

>  <r_i_glide_ecoul>  (1) 
-1.6496611898342393

>  <r_i_glide_eff_state_penalty>  (1) 
-0

>  <r_i_glide_einternal>  (1) 
6.8130154179116946

>  <r_i_glide_emodel>  (1) 
-47.330526561420932

>  <r_i_glide_emodel_strain>  (1) 
0.058611609451318714

>  <r_i_glide_energy>  (1) 
-40.064089586278605

>  <r_i_glide_erotb>  (1) 
0.29906164395455315

>  <r_i_glide_esite>  (1) 
0

>  <r_i_glide_evdw>  (1) 
-38.414428396444364

>  <r_i_glide_gscore>  (1) 
-5.0444903264121006

>  <r_i_glide_gscore_strain>  (1) 
0

>  <r_i_glide_hbond>  (1) 
0

>  <r_i_glide_ligand_efficiency>  (1) 
-0.14012473128922501

>  <r_i_glide_ligand_efficiency_ln>  (1) 
-1.1005715028443326

>  <r_i_glide_ligand_efficiency_sa>  (1) 
-0.46268166848792969

>  <r_i_glide_lipo>  (1) 
-1.8347923206852468

>  <r_i_glide_metal>  (1) 
-0

>  <r_i_glide_rewards>  (1) 
-1.3405890513840535

>  <r_lp_Energy>  (1) 
62.008314999999996

>  <r_lp_tautomer_probability>  (1) 
1

>  <s_epik_cmdline>  (1) 
J2VwaWtfcHl0aG9uJywgJy1waHQnLCAnMS4wJywgJy1waCcsICc3LjQnLCAnLXRuJywgJzgnLCAnLW1hJywgJzUwMCcsICctaW1hZScsICc8aW5maWxlLm1hZT4nLCAnLW9tYWUnLCAnPG91dGZpbGUubWFlPic=

>  <s_epik_input>  (1) 
UzFbQ0gyXUMoRikoRilbQ0gyXVtDQEhdKFtDQEBdMTJbQ0gzXSlbQ0BIXShbQ0gzXSlbQ0gyXWMzYyhbQ0BIXShbT0hdKVtDSDJdW0NIMl0yKWMoW09IXSljKFtjSF1bY0hdMylPW0NIMl1bQ0BASF00W0NIMl1bQ0hdNGM1W2NIXVtjSF1jKEYpW2NIXWM1Rg==

>  <s_glide_docking_method>  (1) 
confgen

>  <s_i_glide_gridfile>  (1) 
gpcr_drd2_6luq_protein_autoprepared_prepared

>  <s_lp_Force_Field>  (1) 
S-OPLS

>  <s_lp_Variant>  (1) 
DiffSBDD_21_num_sample_100-1

>  <s_m_source_file>  (1) 
generated__ligand_DiffSBDD_2026-05-06_prepared.sdf

>  <GenAI_Model>  (1) 
DiffSBDD

>  <Protein>  (1) 
generic_title2

$$$$
DiffSBDD_17_num_sample_100
     RDKit          3D

  0  0  0  0  0  0  0  0  0  0999 V3000
M  V30 BEGIN CTAB
M  V30 COUNTS 55 57 0 0 1
M  V30 BEGIN ATOM
M  V30 1 N 7.581664 5.582764 -14.972465 0
M  V30 2 C 6.410856 4.726507 -12.223904 0
M  V30 3 C 12.133105 9.077574 -6.978243 0
M  V30 4 C 9.071134 6.002403 -8.804010 0
M  V30 5 C 9.618414 6.568097 -10.003720 0
M  V30 6 C 6.806636 4.772754 -18.655531 0
M  V30 7 N 11.952439 8.969301 -8.452063 0
M  V30 8 C 6.075378 6.085070 -18.974784 0
M  V30 9 C 10.541308 7.463733 -7.527714 0
M  V30 10 F 4.536641 7.629640 -18.121698 0
M  V30 11 N 7.365740 5.030346 -11.175988 0
M  V30 12 C 6.019345 6.745508 -16.522886 0
M  V30 13 C 7.378340 4.745992 -17.248095 0
M  V30 14 C 11.031450 7.994606 -8.656532 0
M  V30 15 O 9.834830 4.969302 -15.184271 0
M  V30 16 C 6.042322 5.987658 -13.033492 0 CFG=2
M  V30 17 C 7.036249 5.626008 -16.275121 0
M  V30 18 C 7.211967 6.511028 -13.902778 0
M  V30 19 C 7.265106 4.563256 -9.886986 0
M  V30 20 C 5.490164 7.095166 -12.115531 0
M  V30 21 C 9.563992 6.459007 -7.553535 0
M  V30 22 C 11.124662 8.023462 -6.273483 0
M  V30 23 N 8.524939 4.569250 -14.688372 0
M  V30 24 C 10.611214 7.566756 -9.918170 0
M  V30 25 C 5.195316 6.520305 -17.799618 0 CFG=2
M  V30 26 C 7.991042 4.969236 -8.815898 0
M  V30 27 H 5.506264 4.319853 -11.770163 0
M  V30 28 H 6.805541 3.936904 -12.861357 0
M  V30 29 H 11.846529 10.088122 -6.684612 0
M  V30 30 H 13.177233 8.969297 -6.691680 0
M  V30 31 H 9.291758 6.246810 -10.967652 0
M  V30 32 H 7.613434 4.616287 -19.372239 0
M  V30 33 H 6.125353 3.926773 -18.756903 0
M  V30 34 H 12.749936 9.031122 -9.071650 0
M  V30 35 H 6.804955 6.867693 -19.187324 0
M  V30 36 H 5.476288 5.966429 -19.878219 0
M  V30 37 H 5.327377 6.860881 -15.690199 0
M  V30 38 H 6.570513 7.681639 -16.616626 0
M  V30 39 H 8.094829 3.965622 -17.043719 0
M  V30 40 H 10.409447 4.700564 -14.475867 0
M  V30 41 H 5.230860 5.702187 -13.702811 0
M  V30 42 H 8.088321 6.675392 -13.275203 0
M  V30 43 H 6.980931 7.494933 -14.308523 0
M  V30 44 H 6.505418 3.802912 -9.775624 0
M  V30 45 H 6.272233 7.534897 -11.496036 0
M  V30 46 H 5.034802 7.898628 -12.692602 0
M  V30 47 H 4.733411 6.708800 -11.433413 0
M  V30 48 H 9.175769 6.051971 -6.631430 0
M  V30 49 H 10.361707 8.506952 -5.662620 0
M  V30 50 H 11.639282 7.252759 -5.699227 0
M  V30 51 H 8.350392 3.758324 -15.278768 0
M  V30 52 H 11.025734 8.004701 -10.812989 0
M  V30 53 H 4.433367 5.769304 -17.604845 0
M  V30 54 H 7.774837 4.514379 -7.861982 0
M  V30 55 H 7.985133 5.805458 -11.350285 0
M  V30 END ATOM
M  V30 BEGIN BOND
M  V30 1 1 5 4
M  V30 2 1 7 3
M  V30 3 1 8 6
M  V30 4 1 11 2
M  V30 5 1 13 6
M  V30 6 1 14 7
M  V30 7 2 14 9
M  V30 8 1 16 2
M  V30 9 1 17 1
M  V30 10 1 17 12
M  V30 11 2 17 13
M  V30 12 1 18 1
M  V30 13 1 18 16
M  V30 14 1 19 11
M  V30 15 1 20 16
M  V30 16 2 21 4
M  V30 17 1 21 9
M  V30 18 1 22 3
M  V30 19 1 22 9
M  V30 20 1 23 1
M  V30 21 1 23 15
M  V30 22 2 24 5
M  V30 23 1 24 14
M  V30 24 1 25 8
M  V30 25 1 25 10
M  V30 26 1 25 12
M  V30 27 1 26 4
M  V30 28 2 26 19
M  V30 29 1 27 2
M  V30 30 1 28 2
M  V30 31 1 29 3
M  V30 32 1 30 3
M  V30 33 1 31 5
M  V30 34 1 32 6
M  V30 35 1 33 6
M  V30 36 1 34 7
M  V30 37 1 35 8
M  V30 38 1 36 8
M  V30 39 1 37 12
M  V30 40 1 38 12
M  V30 41 1 39 13
M  V30 42 1 40 15
M  V30 43 1 16 41 CFG=3
M  V30 44 1 42 18
M  V30 45 1 43 18
M  V30 46 1 44 19
M  V30 47 1 45 20
M  V30 48 1 46 20
M  V30 49 1 47 20
M  V30 50 1 48 21
M  V30 51 1 49 22
M  V30 52 1 50 22
M  V30 53 1 51 23
M  V30 54 1 52 24
M  V30 55 1 25 53 CFG=1
M  V30 56 1 54 26
M  V30 57 1 55 11
M  V30 END BOND
M  V30 END CTAB
M  END
>  <i_epik_Tot_Q>  (1) 
0

>  <i_epik_Tot_abs_Q>  (1) 
0

>  <i_i_glide_confnum>  (1) 
321

>  <i_i_glide_lignum>  (1) 
28

>  <i_i_glide_posenum>  (1) 
329

>  <i_i_glide_rotatable_bonds>  (1) 
9

>  <i_lp_mmshare_version>  (1) 
72125

>  <i_m_source_file_index>  (1) 
18

>  <i_f3d_flags>  (1) 
0

>  <num_sample>  (1) 
100

>  <b_lp_Chiralities_Consistent>  (1) 
1

>  <r_epik_Charging_Adjusted_Penalty>  (1) 
0

>  <r_epik_Ionization_Penalty>  (1) 
0.026997388265497368

>  <r_epik_Ionization_Penalty_Charging>  (1) 
0

>  <r_epik_Ionization_Penalty_Neutral>  (1) 
0.026997388265497368

>  <r_epik_State_Penalty>  (1) 
-0

>  <r_glide_ring_energy>  (1) 
0

>  <r_i_docking_score>  (1) 
-5.0393748681301007

>  <r_i_glide_ecoul>  (1) 
-2.058509569672728

>  <r_i_glide_eff_state_penalty>  (1) 
-0

>  <r_i_glide_einternal>  (1) 
7.8819671775668541

>  <r_i_glide_emodel>  (1) 
-42.20722279661075

>  <r_i_glide_emodel_strain>  (1) 
0.54961118582299662

>  <r_i_glide_energy>  (1) 
-35.532612674900349

>  <r_i_glide_erotb>  (1) 
0.88558064458011865

>  <r_i_glide_esite>  (1) 
-0.058719899380390655

>  <r_i_glide_evdw>  (1) 
-33.47410310522762

>  <r_i_glide_gscore>  (1) 
-5.0393748681301007

>  <r_i_glide_gscore_strain>  (1) 
0

>  <r_i_glide_hbond>  (1) 
-0.28186471102606214

>  <r_i_glide_ligand_efficiency>  (1) 
-0.19382211031269619

>  <r_i_glide_ligand_efficiency_ln>  (1) 
-1.1834806522427128

>  <r_i_glide_ligand_efficiency_sa>  (1) 
-0.57419723977178216

>  <r_i_glide_lipo>  (1) 
-1.7593167107099728

>  <r_i_glide_metal>  (1) 
-0

>  <r_i_glide_rewards>  (1) 
-1.8425726008815038

>  <r_lp_Energy>  (1) 
11.300393999999999

>  <r_lp_tautomer_probability>  (1) 
1

>  <s_epik_Chemistry_Notes>  (1) 
This compound has a N-S or N-O group and may undergo hydrolysis at high or low pH.

>  <s_epik_cmdline>  (1) 
J2VwaWtfcHl0aG9uJywgJy1waHQnLCAnMS4wJywgJy1waCcsICc3LjQnLCAnLXRuJywgJzgnLCAnLW1hJywgJzUwMCcsICctaW1hZScsICc8aW5maWxlLm1hZT4nLCAnLW9tYWUnLCAnPG91dGZpbGUubWFlPic=

>  <s_epik_input>  (1) 
RltDQEhdKFtDSDJdMSlbQ0gyXVtDSDJdW0NIXT1DMU4oW05IXVtPSF0pW0NIMl1bQ0BIXShbQ0gzXSlbQ0gyXVtOSF0vW0NIXT1bQ0hdXGMoW2NIXTIpW2NIXVtjSF1jKGMyMylbTkhdW0NIMl1bQ0gyXTM=

>  <s_glide_docking_method>  (1) 
confgen

>  <s_i_glide_gridfile>  (1) 
gpcr_drd2_6luq_protein_autoprepared_prepared

>  <s_lp_Force_Field>  (1) 
S-OPLS

>  <s_lp_Variant>  (1) 
DiffSBDD_17_num_sample_100-1

>  <s_m_source_file>  (1) 
generated__ligand_DiffSBDD_2026-05-06_prepared.sdf

>  <GenAI_Model>  (1) 
DiffSBDD

>  <Protein>  (1) 
generic_title2

$$$$
DiffSBDD_12_num_sample_100
     RDKit          3D

  0  0  0  0  0  0  0  0  0  0999 V3000
M  V30 BEGIN CTAB
M  V30 COUNTS 67 71 0 0 1
M  V30 BEGIN ATOM
M  V30 1 C 5.692647 5.308966 -19.012350 0
M  V30 2 C 5.722309 6.068683 -17.783640 0
M  V30 3 F 5.439346 7.157748 -22.673894 0
M  V30 4 O 9.674585 5.243622 -15.145983 0
M  V30 5 C 12.935566 8.537392 -9.584965 0
M  V30 6 C 5.781765 8.229113 -16.541953 0
M  V30 7 C 5.245077 7.513321 -17.783122 0 CFG=1
M  V30 8 F 4.032619 8.588531 -21.847407 0
M  V30 9 C 10.030464 8.668207 -6.880510 0
M  V30 10 C 5.952588 4.365001 -13.815592 0
M  V30 11 C 5.230070 8.025829 -21.680707 0
M  V30 12 C 8.573215 5.291572 -10.494147 0 CFG=1
M  V30 13 C 9.442766 7.470746 -6.148033 0
M  V30 14 C 10.251374 6.253404 -6.547842 0
M  V30 15 C 11.877420 9.051599 -8.587976 0
M  V30 16 C 5.303075 7.360004 -20.316621 0
M  V30 17 C 6.172878 5.505746 -16.642622 0
M  V30 18 C 6.247721 7.558540 -15.482074 0
M  V30 19 O 7.191921 5.376073 -10.280336 0
M  V30 20 O 7.610673 6.021729 -13.556584 0
M  V30 21 C 9.982603 5.834129 -12.439846 0 CFG=1
M  V30 22 C 10.743025 8.098578 -8.114396 0
M  V30 23 C 6.596567 5.501594 -14.263234 0
M  V30 24 F 6.145951 8.989194 -21.774526 0
M  V30 25 C 10.153979 7.299300 -10.484470 0
M  V30 26 C 11.264177 6.749128 -7.567051 0
M  V30 27 C 8.900100 3.995708 -11.216813 0
M  V30 28 P 8.999113 5.234246 -13.815269 0 CFG=1
M  V30 29 C 9.181115 6.474685 -11.307571 0 CFG=2
M  V30 30 C 9.642182 7.904326 -9.180742 0
M  V30 31 O 6.054333 3.605719 -12.834887 0 CHG=-1
M  V30 32 C 5.485265 5.908564 -20.196930 0
M  V30 33 C 5.216403 8.107461 -19.192163 0
M  V30 34 N 6.299889 6.185669 -15.444160 0
M  V30 35 C 9.714739 4.355097 -12.403008 0 CFG=1
M  V30 36 H 5.858766 4.244514 -18.978574 0
M  V30 37 H 13.101663 9.286769 -10.354133 0
M  V30 38 H 13.892235 8.365632 -9.081750 0
M  V30 39 H 12.682731 7.634483 -10.126328 0
M  V30 40 H 5.764370 9.306052 -16.537097 0
M  V30 41 H 4.181588 7.438755 -17.558921 0
M  V30 42 H 10.727824 9.184489 -6.225531 0
M  V30 43 H 9.245748 9.374785 -7.137727 0
M  V30 44 H 5.211625 4.203269 -14.573406 0
M  V30 45 H 9.016311 5.232789 -9.499788 0
M  V30 46 H 9.526506 7.628316 -5.092367 0
M  V30 47 H 8.389355 7.326166 -6.406211 0
M  V30 48 H 10.743843 5.798440 -5.685104 0
M  V30 49 H 9.595485 5.499937 -6.987156 0
M  V30 50 H 11.440140 9.956065 -9.012655 0
M  V30 51 H 12.428409 9.365454 -7.696833 0
M  V30 52 H 6.506244 4.488439 -16.596809 0
M  V30 53 H 6.598874 8.047368 -14.589408 0
M  V30 54 H 7.034808 6.248518 -9.891434 0
M  V30 55 H 10.985441 6.197876 -12.664565 0
M  V30 56 H 10.928505 6.594121 -10.243836 0
M  V30 57 H 10.610706 8.076957 -11.095209 0
M  V30 58 H 11.399332 5.986236 -8.319703 0
M  V30 59 H 12.232052 6.880736 -7.090134 0
M  V30 60 H 9.516814 3.382905 -10.568686 0
M  V30 61 H 8.046565 3.394601 -11.504558 0
M  V30 62 H 8.402354 7.137820 -11.694977 0
M  V30 63 H 9.107897 8.835965 -9.378682 0
M  V30 64 H 8.906479 7.238054 -8.738348 0
M  V30 65 H 5.491389 5.302295 -21.093190 0
M  V30 66 H 5.087713 9.173194 -19.270691 0
M  V30 67 H 10.406447 3.593863 -12.694112 0
M  V30 END ATOM
M  V30 BEGIN BOND
M  V30 1 1 2 1
M  V30 2 1 7 2
M  V30 3 1 7 6
M  V30 4 1 11 3
M  V30 5 1 11 8
M  V30 6 1 13 9
M  V30 7 1 14 13
M  V30 8 1 15 5
M  V30 9 1 16 11
M  V30 10 2 17 2
M  V30 11 2 18 6
M  V30 12 1 19 12
M  V30 13 1 22 9
M  V30 14 1 22 15
M  V30 15 2 23 10
M  V30 16 1 23 20
M  V30 17 1 24 11
M  V30 18 1 26 14
M  V30 19 1 26 22
M  V30 20 1 27 12
M  V30 21 2 28 4
M  V30 22 1 28 20 CFG=3
M  V30 23 1 28 21
M  V30 24 1 29 12
M  V30 25 1 29 21
M  V30 26 1 29 25
M  V30 27 1 30 22
M  V30 28 1 30 25
M  V30 29 1 31 10
M  V30 30 2 32 1
M  V30 31 1 32 16
M  V30 32 1 33 7
M  V30 33 2 33 16
M  V30 34 1 34 17
M  V30 35 1 34 18
M  V30 36 1 34 23
M  V30 37 1 35 21
M  V30 38 1 35 27
M  V30 39 1 35 28
M  V30 40 1 36 1
M  V30 41 1 37 5
M  V30 42 1 38 5
M  V30 43 1 39 5
M  V30 44 1 40 6
M  V30 45 1 7 41 CFG=1
M  V30 46 1 42 9
M  V30 47 1 43 9
M  V30 48 1 44 10
M  V30 49 1 12 45 CFG=1
M  V30 50 1 46 13
M  V30 51 1 47 13
M  V30 52 1 48 14
M  V30 53 1 49 14
M  V30 54 1 50 15
M  V30 55 1 51 15
M  V30 56 1 52 17
M  V30 57 1 53 18
M  V30 58 1 54 19
M  V30 59 1 21 55 CFG=3
M  V30 60 1 56 25
M  V30 61 1 57 25
M  V30 62 1 58 26
M  V30 63 1 59 26
M  V30 64 1 60 27
M  V30 65 1 61 27
M  V30 66 1 29 62 CFG=3
M  V30 67 1 63 30
M  V30 68 1 64 30
M  V30 69 1 65 32
M  V30 70 1 66 33
M  V30 71 1 35 67 CFG=3
M  V30 END BOND
M  V30 END CTAB
M  END
>  <i_epik_Tot_Q>  (1) 
-1

>  <i_epik_Tot_abs_Q>  (1) 
1

>  <i_i_glide_confnum>  (1) 
169

>  <i_i_glide_lignum>  (1) 
20

>  <i_i_glide_posenum>  (1) 
81

>  <i_i_glide_rotatable_bonds>  (1) 
9

>  <i_lp_mmshare_version>  (1) 
72125

>  <i_m_source_file_index>  (1) 
13

>  <i_f3d_flags>  (1) 
0

>  <num_sample>  (1) 
100

>  <b_lp_Chiralities_Consistent>  (1) 
1

>  <r_epik_Charging_Adjusted_Penalty>  (1) 
6.0913929175536644e-07

>  <r_epik_Ionization_Penalty>  (1) 
7.5242037030438095e-07

>  <r_epik_Ionization_Penalty_Charging>  (1) 
6.0913929175536644e-07

>  <r_epik_Ionization_Penalty_Neutral>  (1) 
1.4328107854901448e-07

>  <r_epik_State_Penalty>  (1) 
-0

>  <r_glide_ring_energy>  (1) 
0.00028320506983768638

>  <r_i_docking_score>  (1) 
-5.0371014373571974

>  <r_i_glide_ecoul>  (1) 
-4.6519617975792613

>  <r_i_glide_eff_state_penalty>  (1) 
-0

>  <r_i_glide_einternal>  (1) 
21.916385810392082

>  <r_i_glide_emodel>  (1) 
-7.7925748033197397

>  <r_i_glide_emodel_strain>  (1) 
6.04261228500161

>  <r_i_glide_energy>  (1) 
-17.179166003798002

>  <r_i_glide_erotb>  (1) 
0.47163652173243925

>  <r_i_glide_esite>  (1) 
0

>  <r_i_glide_evdw>  (1) 
-12.527204206218743

>  <r_i_glide_gscore>  (1) 
-5.0371014373571974

>  <r_i_glide_gscore_strain>  (1) 
0.51065307125040249

>  <r_i_glide_hbond>  (1) 
-0.16

>  <r_i_glide_ligand_efficiency>  (1) 
-0.14391718392449135

>  <r_i_glide_ligand_efficiency_ln>  (1) 
-1.1057555579430896

>  <r_i_glide_ligand_efficiency_sa>  (1) 
-0.47076265179261861

>  <r_i_glide_lipo>  (1) 
-3.0253940275095825

>  <r_i_glide_metal>  (1) 
-0

>  <r_i_glide_rewards>  (1) 
-1.50984252288263

>  <r_lp_Energy>  (1) 
62.944064999999995

>  <r_lp_tautomer_probability>  (1) 
1

>  <s_epik_Chemistry_Notes>  (1) 
This compound has an imine and may undergo hydrolysis.

>  <s_epik_cmdline>  (1) 
J2VwaWtfcHl0aG9uJywgJy1waHQnLCAnMS4wJywgJy1waCcsICc3LjQnLCAnLXRuJywgJzgnLCAnLW1hJywgJzUwMCcsICctaW1hZScsICc8aW5maWxlLm1hZT4nLCAnLW9tYWUnLCAnPG91dGZpbGUubWFlPic=

>  <s_epik_input>  (1) 
W0NIXTE9W0NIXUMoQyhGKShGKUYpPVtDSF1bQ0BASF0oQzE9MilbQ0hdPVtDSF1OKFtDSF0yKVtDQEBIXShbQ0hdPU8pT1tQQF0zKD1PKVtDQEBIXShbQ0BASF0zNClbQ0gyXVtDQEhdKFtPSF0pW0NASF00W0NIMl1bQ0gyXUM1KFtDSDJdW0NIM10pW0NIMl1bQ0gyXVtDSDJdW0NIMl01

>  <s_glide_docking_method>  (1) 
confgen

>  <s_i_glide_gridfile>  (1) 
gpcr_drd2_6luq_protein_autoprepared_prepared

>  <s_lp_Force_Field>  (1) 
S-OPLS

>  <s_lp_Variant>  (1) 
DiffSBDD_12_num_sample_100-1

>  <s_m_source_file>  (1) 
generated__ligand_DiffSBDD_2026-05-06_prepared.sdf

>  <GenAI_Model>  (1) 
DiffSBDD

>  <Protein>  (1) 
generic_title2

$$$$
DiffSBDD_45_num_sample_100
     RDKit          3D

  0  0  0  0  0  0  0  0  0  0999 V3000
M  V30 BEGIN CTAB
M  V30 COUNTS 63 65 0 0 1
M  V30 BEGIN ATOM
M  V30 1 C 6.052922 5.456182 -17.648595 0
M  V30 2 C 9.434001 7.395826 -8.596640 0
M  V30 3 C 4.817391 6.358315 -17.507143 0
M  V30 4 C 12.228925 7.917705 -7.606123 0 CFG=1
M  V30 5 C 11.112109 8.945135 -7.623548 0 CFG=1
M  V30 6 C 11.349247 6.647603 -5.671105 0
M  V30 7 C 8.336282 4.840851 -13.743667 0
M  V30 8 C 7.017113 6.252217 -15.425101 0 CFG=1
M  V30 9 O 9.096429 4.570047 -14.671493 0
M  V30 10 N 9.724644 8.424444 -7.582129 0
M  V30 11 Cl 11.435669 10.043116 -6.234312 0
M  V30 12 C 7.840356 6.132530 -11.051261 0 CFG=1
M  V30 13 C 6.192645 4.086126 -11.349200 0
M  V30 14 C 5.037609 7.431719 -16.471442 0
M  V30 15 C 9.330590 6.540354 -10.958431 0
M  V30 16 N 11.834923 6.618361 -7.030792 0
M  V30 17 C 7.048479 7.109928 -11.924512 0
M  V30 18 C 9.599430 7.771030 -10.073355 0
M  V30 19 C 6.013509 7.389978 -15.552440 0
M  V30 20 C 9.257075 7.980150 -6.265228 0
M  V30 21 C 7.629452 4.647552 -11.377817 0 CFG=1
M  V30 22 C 7.219868 5.886817 -13.945552 0 CFG=2
M  V30 23 F 12.644858 7.769383 -8.864472 0
M  V30 24 O 7.537615 7.080588 -13.249394 0
M  V30 25 C 6.593951 5.048806 -16.267300 0
M  V30 26 C 9.836134 6.658080 -5.727086 0
M  V30 27 N 8.435207 4.247362 -12.529631 0
M  V30 28 C 9.447092 3.238797 -12.283320 0
M  V30 29 H 6.834194 5.996008 -18.187568 0
M  V30 30 H 5.827540 4.582373 -18.261460 0
M  V30 31 H 8.460815 6.967928 -8.381645 0
M  V30 32 H 10.037435 6.511997 -8.474046 0
M  V30 33 H 3.958580 5.780837 -17.177256 0
M  V30 34 H 4.570214 6.815267 -18.467055 0
M  V30 35 H 13.079465 8.359003 -7.098716 0
M  V30 36 H 11.242299 9.540932 -8.529488 0
M  V30 37 H 11.750519 7.489126 -5.102167 0
M  V30 38 H 11.677544 5.749583 -5.156908 0
M  V30 39 H 7.967294 6.569192 -15.812976 0
M  V30 40 H 7.440882 6.169301 -10.053339 0
M  V30 41 H 5.827554 4.055556 -10.321075 0
M  V30 42 H 5.461680 4.663772 -11.906962 0
M  V30 43 H 6.174133 3.064966 -11.730457 0
M  V30 44 H 4.356780 8.267456 -16.490314 0
M  V30 45 H 9.887535 5.697259 -10.548318 0
M  V30 46 H 9.747899 6.711369 -11.950156 0
M  V30 47 H 11.122173 6.205305 -7.621547 0
M  V30 48 H 7.170038 8.131666 -11.567489 0
M  V30 49 H 5.977767 6.908379 -11.885249 0
M  V30 50 H 10.615452 8.113447 -10.261363 0
M  V30 51 H 8.961006 8.611526 -10.332511 0
M  V30 52 H 6.107688 8.192355 -14.847982 0
M  V30 53 H 9.430384 8.756691 -5.534508 0
M  V30 54 H 8.174129 7.880067 -6.291957 0
M  V30 55 H 8.069545 4.167781 -10.503208 0
M  V30 56 H 6.265581 5.486242 -13.626199 0
M  V30 57 H 7.398099 4.328639 -16.406864 0
M  V30 58 H 5.847047 4.569880 -15.637766 0
M  V30 59 H 9.488679 6.459313 -4.721252 0
M  V30 60 H 9.469034 5.817868 -6.317692 0
M  V30 61 H 9.364285 2.399349 -12.970271 0
M  V30 62 H 10.410652 3.729276 -12.361705 0
M  V30 63 H 9.427420 2.841585 -11.276586 0
M  V30 END ATOM
M  V30 BEGIN BOND
M  V30 1 1 3 1
M  V30 2 1 5 4
M  V30 3 2 9 7
M  V30 4 1 10 2
M  V30 5 1 10 5
M  V30 6 1 11 5
M  V30 7 1 14 3
M  V30 8 1 15 12
M  V30 9 1 16 4
M  V30 10 1 16 6
M  V30 11 1 17 12
M  V30 12 1 18 2
M  V30 13 1 18 15
M  V30 14 1 19 8
M  V30 15 2 19 14
M  V30 16 1 20 10
M  V30 17 1 21 12
M  V30 18 1 21 13
M  V30 19 1 22 7
M  V30 20 1 22 8
M  V30 21 1 23 4
M  V30 22 1 24 17
M  V30 23 1 24 22
M  V30 24 1 25 1
M  V30 25 1 25 8
M  V30 26 1 26 6
M  V30 27 1 26 20
M  V30 28 1 27 7
M  V30 29 1 27 21
M  V30 30 1 28 27
M  V30 31 1 29 1
M  V30 32 1 30 1
M  V30 33 1 31 2
M  V30 34 1 32 2
M  V30 35 1 33 3
M  V30 36 1 34 3
M  V30 37 1 4 35 CFG=1
M  V30 38 1 5 36 CFG=3
M  V30 39 1 37 6
M  V30 40 1 38 6
M  V30 41 1 8 39 CFG=3
M  V30 42 1 12 40 CFG=1
M  V30 43 1 41 13
M  V30 44 1 42 13
M  V30 45 1 43 13
M  V30 46 1 44 14
M  V30 47 1 45 15
M  V30 48 1 46 15
M  V30 49 1 47 16
M  V30 50 1 48 17
M  V30 51 1 49 17
M  V30 52 1 50 18
M  V30 53 1 51 18
M  V30 54 1 52 19
M  V30 55 1 53 20
M  V30 56 1 54 20
M  V30 57 1 21 55 CFG=1
M  V30 58 1 22 56 CFG=1
M  V30 59 1 57 25
M  V30 60 1 58 25
M  V30 61 1 59 26
M  V30 62 1 60 26
M  V30 63 1 61 28
M  V30 64 1 62 28
M  V30 65 1 63 28
M  V30 END BOND
M  V30 END CTAB
M  END
>  <i_epik_Tot_Q>  (1) 
0

>  <i_epik_Tot_abs_Q>  (1) 
0

>  <i_i_glide_confnum>  (1) 
354

>  <i_i_glide_lignum>  (1) 
82

>  <i_i_glide_posenum>  (1) 
92

>  <i_i_glide_rotatable_bonds>  (1) 
5

>  <i_lp_mmshare_version>  (1) 
72125

>  <i_m_source_file_index>  (1) 
46

>  <i_f3d_flags>  (1) 
0

>  <num_sample>  (1) 
100

>  <b_lp_Chiralities_Consistent>  (1) 
1

>  <r_epik_Charging_Adjusted_Penalty>  (1) 
0.015133208647659156

>  <r_epik_Ionization_Penalty>  (1) 
0.015206278080010002

>  <r_epik_Ionization_Penalty_Charging>  (1) 
0

>  <r_epik_Ionization_Penalty_Neutral>  (1) 
0.015206278080010002

>  <r_epik_State_Penalty>  (1) 
0.015133208647659156

>  <r_glide_ring_energy>  (1) 
1.5822242403273115

>  <r_i_docking_score>  (1) 
-5.0316935560422813

>  <r_i_glide_ecoul>  (1) 
-3.3309603422867724

>  <r_i_glide_eff_state_penalty>  (1) 
0.015133208647659156

>  <r_i_glide_einternal>  (1) 
2.3993073782187935

>  <r_i_glide_emodel>  (1) 
-21.672358523477396

>  <r_i_glide_emodel_strain>  (1) 
0.2506380180985559

>  <r_i_glide_energy>  (1) 
-16.884192678126695

>  <r_i_glide_erotb>  (1) 
0.45657733151366331

>  <r_i_glide_esite>  (1) 
0

>  <r_i_glide_evdw>  (1) 
-13.553232335839924

>  <r_i_glide_gscore>  (1) 
-5.0468267646899401

>  <r_i_glide_gscore_strain>  (1) 
0

>  <r_i_glide_hbond>  (1) 
0

>  <r_i_glide_ligand_efficiency>  (1) 
-0.17970334128722434

>  <r_i_glide_ligand_efficiency_ln>  (1) 
-1.1614626096769352

>  <r_i_glide_ligand_efficiency_sa>  (1) 
-0.54568518436199387

>  <r_i_glide_lipo>  (1) 
-2.3348865115785133

>  <r_i_glide_metal>  (1) 
-0

>  <r_i_glide_rewards>  (1) 
-1.991211916490079

>  <r_lp_Energy>  (1) 
30.384622

>  <s_epik_cmdline>  (1) 
J2VwaWtfcHl0aG9uJywgJy1waHQnLCAnMS4wJywgJy1waCcsICc3LjQnLCAnLXRuJywgJzgnLCAnLW1hJywgJzUwMCcsICctaW1hZScsICc8aW5maWxlLm1hZT4nLCAnLW9tYWUnLCAnPG91dGZpbGUubWFlPic=

>  <s_epik_input>  (1) 
W0NIMl0xW0NIMl1bQ0gyXVtDSF09W0NIXVtDQEhdMVtDQEBIXShDMj1PKU9bQ0gyXVtDQEBIXShbQ0BASF0oW0NIM10pTjJbQ0gzXSlbQ0gyXVtDSDJdW0NIMl1OKFtDQEBIXShDbClbQ0BASF0zRilbQ0gyXVtDSDJdW0NIMl1bTkhdMw==

>  <s_glide_docking_method>  (1) 
confgen

>  <s_i_glide_gridfile>  (1) 
gpcr_drd2_6luq_protein_autoprepared_prepared

>  <s_lp_Force_Field>  (1) 
S-OPLS

>  <s_lp_Variant>  (1) 
DiffSBDD_45_num_sample_100-1

>  <s_m_source_file>  (1) 
generated__ligand_DiffSBDD_2026-05-06_prepared.sdf

>  <GenAI_Model>  (1) 
DiffSBDD

>  <Protein>  (1) 
generic_title2

$$$$
DiffSBDD_73_num_sample_100
     RDKit          3D

  0  0  0  0  0  0  0  0  0  0999 V3000
M  V30 BEGIN CTAB
M  V30 COUNTS 42 44 0 0 1
M  V30 BEGIN ATOM
M  V30 1 C 8.819500 4.697057 -12.697687 0 CFG=1
M  V30 2 C 10.726669 7.772975 -8.937356 0
M  V30 3 O 9.308936 3.670751 -12.060915 0 CHG=-1
M  V30 4 C 11.587474 8.090096 -6.801010 0
M  V30 5 C 6.644003 3.499037 -13.061729 0
M  V30 6 C 6.845645 5.002569 -11.063038 0
M  V30 7 N 7.876483 4.079251 -13.673317 0 CFG=1 CHG=1
M  V30 8 C 9.034839 6.356217 -10.730444 0
M  V30 9 C 10.886709 6.990193 -6.274792 0
M  V30 10 C 9.960778 6.657333 -8.489126 0
M  V30 11 N 11.519953 8.469216 -8.090245 0
M  V30 12 C 5.907347 4.505239 -12.164059 0
M  V30 13 C 8.734865 4.824809 -15.911682 0
M  V30 14 C 10.639399 8.137809 -10.291729 0
M  V30 15 C 7.603306 4.911198 -14.876013 0
M  V30 16 C 11.034841 6.599773 -4.855078 0
M  V30 17 C 10.046134 6.267189 -7.140236 0
M  V30 18 C 9.801136 7.442381 -11.180147 0
M  V30 19 C 9.125245 5.950578 -9.381794 0
M  V30 20 C 8.094942 5.641902 -11.703763 0 CFG=1
M  V30 21 N 11.827353 7.160946 -4.039959 0
M  V30 22 H 9.499032 5.336165 -13.261881 0
M  V30 23 H 12.234840 8.678272 -6.169069 0
M  V30 24 H 6.928489 2.630904 -12.466388 0
M  V30 25 H 5.976990 3.112767 -13.832191 0
M  V30 26 H 7.120553 4.169344 -10.416217 0
M  V30 27 H 6.327100 5.732119 -10.438990 0
M  V30 28 H 5.034841 4.038038 -11.710864 0
M  V30 29 H 5.538346 5.344460 -12.754840 0
M  V30 30 H 8.487013 5.405232 -16.800551 0
M  V30 31 H 9.679380 5.210090 -15.527488 0
M  V30 32 H 8.900855 3.794754 -16.228715 0
M  V30 33 H 11.218746 8.969302 -10.649750 0
M  V30 34 H 6.689039 4.569843 -15.362574 0
M  V30 35 H 7.421929 5.947491 -14.588733 0
M  V30 36 H 10.413805 5.769302 -4.516786 0
M  V30 37 H 9.480923 5.422016 -6.779268 0
M  V30 38 H 9.739280 7.753298 -12.212501 0
M  V30 39 H 8.544366 5.113838 -9.026987 0
M  V30 40 H 7.698377 6.461829 -12.304484 0
M  V30 41 H 11.793668 6.748822 -3.117817 0
M  V30 42 H 8.397937 3.279801 -13.999155 0
M  V30 END ATOM
M  V30 BEGIN BOND
M  V30 1 1 3 1
M  V30 2 1 7 1
M  V30 3 1 7 5
M  V30 4 1 9 4
M  V30 5 1 10 2
M  V30 6 1 11 2
M  V30 7 2 11 4
M  V30 8 1 12 5
M  V30 9 1 12 6
M  V30 10 2 14 2
M  V30 11 1 15 7
M  V30 12 1 15 13
M  V30 13 1 16 9
M  V30 14 2 17 9
M  V30 15 1 17 10
M  V30 16 2 18 8
M  V30 17 1 18 14
M  V30 18 1 19 8
M  V30 19 2 19 10
M  V30 20 1 20 1
M  V30 21 1 20 6
M  V30 22 1 20 8
M  V30 23 2 21 16
M  V30 24 1 1 22 CFG=3
M  V30 25 1 23 4
M  V30 26 1 24 5
M  V30 27 1 25 5
M  V30 28 1 26 6
M  V30 29 1 27 6
M  V30 30 1 28 12
M  V30 31 1 29 12
M  V30 32 1 30 13
M  V30 33 1 31 13
M  V30 34 1 32 13
M  V30 35 1 33 14
M  V30 36 1 34 15
M  V30 37 1 35 15
M  V30 38 1 36 16
M  V30 39 1 37 17
M  V30 40 1 38 18
M  V30 41 1 39 19
M  V30 42 1 20 40 CFG=3
M  V30 43 1 41 21
M  V30 44 1 7 42 CFG=3
M  V30 END BOND
M  V30 END CTAB
M  END
>  <i_epik_Tot_Q>  (1) 
0

>  <i_epik_Tot_abs_Q>  (1) 
2

>  <i_i_glide_confnum>  (1) 
8

>  <i_i_glide_lignum>  (1) 
146

>  <i_i_glide_posenum>  (1) 
395

>  <i_i_glide_rotatable_bonds>  (1) 
3

>  <i_lp_mmshare_version>  (1) 
72125

>  <i_m_source_file_index>  (1) 
74

>  <i_f3d_flags>  (1) 
0

>  <num_sample>  (1) 
100

>  <b_lp_Chiralities_Consistent>  (1) 
1

>  <r_epik_Charging_Adjusted_Penalty>  (1) 
0.16727262916870361

>  <r_epik_Ionization_Penalty>  (1) 
0.055388618387316971

>  <r_epik_Ionization_Penalty_Charging>  (1) 
0.05537307808352282

>  <r_epik_Ionization_Penalty_Neutral>  (1) 
1.5540303794148587e-05

>  <r_epik_State_Penalty>  (1) 
0.11189955108518078

>  <r_glide_ring_energy>  (1) 
2.2761646496087313

>  <r_i_docking_score>  (1) 
-5.0313872296319611

>  <r_i_glide_ecoul>  (1) 
0.98913668330744298

>  <r_i_glide_eff_state_penalty>  (1) 
0.11189955108518078

>  <r_i_glide_einternal>  (1) 
1.9045540544765398

>  <r_i_glide_emodel>  (1) 
-39.039133007075826

>  <r_i_glide_emodel_strain>  (1) 
0

>  <r_i_glide_energy>  (1) 
-29.191741790100469

>  <r_i_glide_erotb>  (1) 
0.22551580141899327

>  <r_i_glide_esite>  (1) 
0

>  <r_i_glide_evdw>  (1) 
-30.180878473407912

>  <r_i_glide_gscore>  (1) 
-5.1432867807171414

>  <r_i_glide_gscore_strain>  (1) 
0

>  <r_i_glide_hbond>  (1) 
0

>  <r_i_glide_ligand_efficiency>  (1) 
-0.23958986807771243

>  <r_i_glide_ligand_efficiency_ln>  (1) 
-1.2440003256513084

>  <r_i_glide_ligand_efficiency_sa>  (1) 
-0.66101027945556423

>  <r_i_glide_lipo>  (1) 
-1.0368144982692837

>  <r_i_glide_metal>  (1) 
-0

>  <r_i_glide_rewards>  (1) 
-2.9713146626925715

>  <r_lp_Energy>  (1) 
46.855032999999999

>  <s_epik_Chemistry_Notes>  (1) 
This compound has an imine and may undergo hydrolysis. This compound contains an acetal/aminal-like group ( X-CH(R)-Y where X, Y are N, S, or O) that may be acid/base labile, releasing an aldehyde.

>  <s_epik_cmdline>  (1) 
J2VwaWtfcHl0aG9uJywgJy1waHQnLCAnMS4wJywgJy1waCcsICc3LjQnLCAnLXRuJywgJzgnLCAnLW1hJywgJzUwMCcsICctaW1hZScsICc8aW5maWxlLm1hZT4nLCAnLW9tYWUnLCAnPG91dGZpbGUubWFlPic=

>  <s_epik_input>  (1) 
W09IXVtDQEhdMU4oW0NIMl1bQ0gzXSlbQ0gyXVtDSDJdW0NIMl1bQ0BIXTFjKFtjSF1bY0hdMilbY0hdYyhjMjMpW2NIXWMoW2NIXW4zKS9bQ0hdPU4vW0hd

>  <s_glide_docking_method>  (1) 
confgen

>  <s_i_glide_gridfile>  (1) 
gpcr_drd2_6luq_protein_autoprepared_prepared

>  <s_lp_Force_Field>  (1) 
S-OPLS

>  <s_lp_Variant>  (1) 
DiffSBDD_73_num_sample_100-1

>  <s_m_source_file>  (1) 
generated__ligand_DiffSBDD_2026-05-06_prepared.sdf

>  <GenAI_Model>  (1) 
DiffSBDD

>  <Protein>  (1) 
generic_title2

$$$$
DiffSBDD_94_num_sample_100
     RDKit          3D

  0  0  0  0  0  0  0  0  0  0999 V3000
M  V30 BEGIN CTAB
M  V30 COUNTS 55 56 0 0 1
M  V30 BEGIN ATOM
M  V30 1 C 7.736206 8.009214 -12.273876 0
M  V30 2 C 7.086648 5.442624 -12.717827 0
M  V30 3 C 6.838468 6.803139 -14.937554 0 CFG=1
M  V30 4 N 7.176370 5.060826 -16.748272 0
M  V30 5 C 6.780760 4.610103 -18.083943 0
M  V30 6 S 9.696351 6.030656 -11.951236 0
M  V30 7 F 5.810643 7.369300 -14.310542 0
M  V30 8 C 11.817958 8.526135 -4.981395 0
M  V30 9 C 8.096383 6.577063 -12.648939 0 CFG=2
M  V30 10 C 11.775130 7.943969 -7.512577 0 CFG=1
M  V30 11 C 8.706981 5.162707 -14.789569 0
M  V30 12 C 12.196888 7.760313 -3.707856 0
M  V30 13 C 8.285534 4.722993 -8.239034 0
M  V30 14 C 11.986075 8.806615 -1.433975 0
M  V30 15 C 10.971465 7.307217 -8.566862 0
M  V30 16 C 9.253859 6.028169 -10.188830 0 CFG=1
M  V30 17 O 11.834840 9.331683 -7.726726 0
M  V30 18 C 8.935243 4.641014 -9.633128 0
M  V30 19 C 8.335021 4.629715 -16.187447 0
M  V30 20 C 7.689081 5.979442 -13.996134 0 CFG=1
M  V30 21 C 10.234837 6.763635 -9.374310 0
M  V30 22 O 9.092283 3.846164 -16.759216 0
M  V30 23 C 6.246129 5.965291 -16.062899 0
M  V30 24 C 12.600074 8.721198 -2.618082 0
M  V30 25 C 11.227244 7.640823 -6.099276 0
M  V30 26 H 6.710853 8.060810 -11.905433 0
M  V30 27 H 8.388412 8.395897 -11.491643 0
M  V30 28 H 7.834839 8.669776 -13.132698 0
M  V30 29 H 7.397239 4.445677 -12.413326 0
M  V30 30 H 6.049521 5.682934 -12.492263 0
M  V30 31 H 7.434833 7.625353 -15.314169 0
M  V30 32 H 6.783710 3.520883 -18.145142 0
M  V30 33 H 5.778200 4.947760 -18.349047 0
M  V30 34 H 7.471506 4.996387 -18.834840 0
M  V30 35 H 12.698869 9.062624 -5.331530 0
M  V30 36 H 11.091256 9.303164 -4.740381 0
M  V30 37 H 12.789100 7.558133 -7.598195 0
M  V30 38 H 9.600697 5.769298 -14.925740 0
M  V30 39 H 9.018692 4.307914 -14.188756 0
M  V30 40 H 11.384764 7.120567 -3.369100 0
M  V30 41 H 13.034830 7.096337 -3.891637 0
M  V30 42 H 7.902986 3.769299 -7.891668 0
M  V30 43 H 8.987933 5.088060 -7.491665 0
M  V30 44 H 7.434871 5.401436 -8.252428 0
M  V30 45 H 12.313858 9.516751 -0.691680 0
M  V30 46 H 11.147712 8.169308 -1.192194 0
M  V30 47 H 8.324210 6.569299 -10.117239 0
M  V30 48 H 12.395034 9.490347 -8.472711 0
M  V30 49 H 8.228766 4.169311 -10.310097 0
M  V30 50 H 9.834836 4.022388 -9.611633 0
M  V30 51 H 5.788931 6.638506 -16.789735 0
M  V30 52 H 5.434839 5.369304 -15.652973 0
M  V30 53 H 13.434842 9.369314 -2.831105 0
M  V30 54 H 10.141414 7.755360 -6.082326 0
M  V30 55 H 11.410566 6.588142 -5.877923 0
M  V30 END ATOM
M  V30 BEGIN BOND
M  V30 1 1 5 4
M  V30 2 1 7 3
M  V30 3 1 9 1
M  V30 4 1 9 2
M  V30 5 1 9 6 CFG=1
M  V30 6 1 12 8
M  V30 7 1 15 10
M  V30 8 1 16 6
M  V30 9 1 17 10
M  V30 10 1 18 13
M  V30 11 1 18 16
M  V30 12 1 19 4
M  V30 13 1 19 11
M  V30 14 1 20 2 CFG=1
M  V30 15 1 20 3
M  V30 16 1 20 9
M  V30 17 1 20 11
M  V30 18 3 21 15
M  V30 19 1 21 16
M  V30 20 2 22 19
M  V30 21 1 23 3
M  V30 22 1 23 4
M  V30 23 1 24 12
M  V30 24 2 24 14
M  V30 25 1 25 8
M  V30 26 1 25 10
M  V30 27 1 26 1
M  V30 28 1 27 1
M  V30 29 1 28 1
M  V30 30 1 29 2
M  V30 31 1 30 2
M  V30 32 1 3 31 CFG=3
M  V30 33 1 32 5
M  V30 34 1 33 5
M  V30 35 1 34 5
M  V30 36 1 35 8
M  V30 37 1 36 8
M  V30 38 1 10 37 CFG=1
M  V30 39 1 38 11
M  V30 40 1 39 11
M  V30 41 1 40 12
M  V30 42 1 41 12
M  V30 43 1 42 13
M  V30 44 1 43 13
M  V30 45 1 44 13
M  V30 46 1 45 14
M  V30 47 1 46 14
M  V30 48 1 16 47 CFG=3
M  V30 49 1 48 17
M  V30 50 1 49 18
M  V30 51 1 50 18
M  V30 52 1 51 23
M  V30 53 1 52 23
M  V30 54 1 53 24
M  V30 55 1 54 25
M  V30 56 1 55 25
M  V30 END BOND
M  V30 END CTAB
M  END
>  <i_epik_Tot_Q>  (1) 
0

>  <i_epik_Tot_abs_Q>  (1) 
0

>  <i_i_glide_confnum>  (1) 
467

>  <i_i_glide_lignum>  (1) 
189

>  <i_i_glide_posenum>  (1) 
241

>  <i_i_glide_rotatable_bonds>  (1) 
10

>  <i_lp_mmshare_version>  (1) 
72125

>  <i_m_source_file_index>  (1) 
95

>  <i_f3d_flags>  (1) 
0

>  <num_sample>  (1) 
100

>  <b_lp_Chiralities_Consistent>  (1) 
1

>  <r_epik_Charging_Adjusted_Penalty>  (1) 
0

>  <r_epik_Ionization_Penalty>  (1) 
2.8843446265645777e-07

>  <r_epik_Ionization_Penalty_Charging>  (1) 
0

>  <r_epik_Ionization_Penalty_Neutral>  (1) 
2.8843446265645777e-07

>  <r_epik_State_Penalty>  (1) 
-0

>  <r_glide_ring_energy>  (1) 
0.24252477231888428

>  <r_i_docking_score>  (1) 
-5.0246143884167118

>  <r_i_glide_ecoul>  (1) 
-1.6769333539219788

>  <r_i_glide_eff_state_penalty>  (1) 
-0

>  <r_i_glide_einternal>  (1) 
8.8159987105371247

>  <r_i_glide_emodel>  (1) 
-31.1317570715347

>  <r_i_glide_emodel_strain>  (1) 
4.5214101223941583

>  <r_i_glide_energy>  (1) 
-30.977317796775971

>  <r_i_glide_erotb>  (1) 
1.1406536467652393

>  <r_i_glide_esite>  (1) 
0

>  <r_i_glide_evdw>  (1) 
-29.300384442853993

>  <r_i_glide_gscore>  (1) 
-5.0246143884167118

>  <r_i_glide_gscore_strain>  (1) 
0.13035253059853957

>  <r_i_glide_hbond>  (1) 
0

>  <r_i_glide_ligand_efficiency>  (1) 
-0.20098457553666849

>  <r_i_glide_ligand_efficiency_ln>  (1) 
-1.1909841855972811

>  <r_i_glide_ligand_efficiency_sa>  (1) 
-0.58768246397640234

>  <r_i_glide_lipo>  (1) 
-2.4647972911069913

>  <r_i_glide_metal>  (1) 
-0

>  <r_i_glide_rewards>  (1) 
-2.1142640494425038

>  <r_lp_Energy>  (1) 
17.436699000000001

>  <r_lp_tautomer_probability>  (1) 
1

>  <s_epik_cmdline>  (1) 
J2VwaWtfcHl0aG9uJywgJy1waHQnLCAnMS4wJywgJy1waCcsICc3LjQnLCAnLXRuJywgJzgnLCAnLW1hJywgJzUwMCcsICctaW1hZScsICc8aW5maWxlLm1hZT4nLCAnLW9tYWUnLCAnPG91dGZpbGUubWFlPic=

>  <s_epik_input>  (1) 
W0NIMl0xQyg9TylOKFtDSDNdKVtDSDJdW0NAQEhdKEYpW0NAQF0xMltDSDJdW0NAQF0yKFtDSDNdKVNbQ0BASF0oW0NIMl1bQ0gzXSlDI0NbQ0BASF0oW09IXSlbQ0gyXVtDSDJdW0NIMl1bQ0hdPVtDSDJd

>  <s_glide_docking_method>  (1) 
confgen

>  <s_i_glide_gridfile>  (1) 
gpcr_drd2_6luq_protein_autoprepared_prepared

>  <s_lp_Force_Field>  (1) 
S-OPLS

>  <s_lp_Variant>  (1) 
DiffSBDD_94_num_sample_100-1

>  <s_m_source_file>  (1) 
generated__ligand_DiffSBDD_2026-05-06_prepared.sdf

>  <GenAI_Model>  (1) 
DiffSBDD

>  <Protein>  (1) 
generic_title2

$$$$
DiffSBDD_55_num_sample_100
     RDKit          3D

  0  0  0  0  0  0  0  0  0  0999 V3000
M  V30 BEGIN CTAB
M  V30 COUNTS 51 54 0 0 1
M  V30 BEGIN ATOM
M  V30 1 O 10.004745 6.870461 -7.810006 0
M  V30 2 C 6.916432 5.697587 -19.173714 0
M  V30 3 C 7.404132 5.369303 -10.712285 0
M  V30 4 C 5.750285 4.053660 -13.038790 0
M  V30 5 C 9.454540 7.219122 -11.573659 0 CFG=2
M  V30 6 C 9.648948 6.579578 -10.210078 0 CFG=1
M  V30 7 S 4.798933 6.569304 -17.667787 0
M  V30 8 C 5.386230 5.689498 -19.150792 0
M  V30 9 C 7.341776 5.769606 -17.721482 0
M  V30 10 C 11.597472 8.525247 -7.654619 0
M  V30 11 N 7.581092 5.520812 -12.177711 0 CFG=1 CHG=1
M  V30 12 C 9.849339 7.570962 -9.037334 0 CFG=2
M  V30 13 C 8.748885 5.341936 -9.984813 0 CFG=2
M  V30 14 C 11.146364 8.396929 -9.104657 0
M  V30 15 C 10.514781 7.795103 -6.866220 0
M  V30 16 C 6.290252 5.666711 -15.457488 0
M  V30 17 C 6.276957 5.497324 -12.914790 0 CFG=1
M  V30 18 C 6.358935 6.435031 -16.762950 0 CFG=2
M  V30 19 C 8.234824 7.965367 -12.080926 0
M  V30 20 O 8.422562 5.322819 -17.339643 0
M  V30 21 O 9.419157 4.214357 -10.525890 0
M  V30 22 C 6.332014 6.250227 -14.246953 0
M  V30 23 C 8.544347 6.582421 -12.611809 0 CFG=1
M  V30 24 H 7.324100 4.813570 -19.665286 0
M  V30 25 H 7.292006 6.581432 -19.690185 0
M  V30 26 H 6.875014 4.443646 -10.489498 0
M  V30 27 H 6.758080 6.156131 -10.347486 0
M  V30 28 H 4.778178 4.033887 -13.529002 0
M  V30 29 H 6.433535 3.414117 -13.600414 0
M  V30 30 H 5.605866 3.589731 -12.064408 0
M  V30 31 H 10.388820 7.621337 -11.959604 0
M  V30 32 H 10.634839 6.169308 -10.262146 0
M  V30 33 H 5.034845 4.658377 -19.106578 0
M  V30 34 H 4.966970 6.142032 -20.050064 0
M  V30 35 H 11.706170 9.561127 -7.333841 0
M  V30 36 H 12.560276 8.029940 -7.521207 0
M  V30 37 H 9.034836 8.275548 -8.945696 0
M  V30 38 H 8.584321 5.163869 -8.921908 0
M  V30 39 H 11.924121 7.897220 -9.683566 0
M  V30 40 H 10.973015 9.369334 -9.561691 0
M  V30 41 H 9.721359 8.478385 -6.558547 0
M  V30 42 H 10.899692 7.293460 -5.978205 0
M  V30 43 H 6.211852 4.593312 -15.534030 0
M  V30 44 H 5.549982 6.059764 -12.326275 0
M  V30 45 H 6.679734 7.453897 -16.555308 0
M  V30 46 H 8.447304 8.835668 -12.692283 0
M  V30 47 H 7.333522 8.064074 -11.491667 0
M  V30 48 H 10.157131 4.000181 -9.971143 0
M  V30 49 H 6.411426 7.326804 -14.183975 0
M  V30 50 H 8.943832 6.414213 -13.602367 0
M  V30 51 H 8.061972 4.669197 -12.433777 0
M  V30 END ATOM
M  V30 BEGIN BOND
M  V30 1 1 6 5
M  V30 2 1 8 2
M  V30 3 1 8 7
M  V30 4 1 9 2
M  V30 5 1 11 3
M  V30 6 1 12 1
M  V30 7 1 12 6
M  V30 8 1 13 3
M  V30 9 1 13 6
M  V30 10 1 14 10
M  V30 11 1 14 12
M  V30 12 1 15 1
M  V30 13 1 15 10
M  V30 14 1 17 4
M  V30 15 1 17 11
M  V30 16 1 18 7
M  V30 17 1 18 9
M  V30 18 1 18 16
M  V30 19 1 19 5
M  V30 20 2 20 9
M  V30 21 1 21 13
M  V30 22 2 22 16
M  V30 23 1 22 17
M  V30 24 1 23 5
M  V30 25 1 23 11
M  V30 26 1 23 19
M  V30 27 1 24 2
M  V30 28 1 25 2
M  V30 29 1 26 3
M  V30 30 1 27 3
M  V30 31 1 28 4
M  V30 32 1 29 4
M  V30 33 1 30 4
M  V30 34 1 5 31 CFG=3
M  V30 35 1 6 32 CFG=3
M  V30 36 1 33 8
M  V30 37 1 34 8
M  V30 38 1 35 10
M  V30 39 1 36 10
M  V30 40 1 12 37 CFG=1
M  V30 41 1 13 38 CFG=1
M  V30 42 1 39 14
M  V30 43 1 40 14
M  V30 44 1 41 15
M  V30 45 1 42 15
M  V30 46 1 43 16
M  V30 47 1 17 44 CFG=1
M  V30 48 1 18 45 CFG=1
M  V30 49 1 46 19
M  V30 50 1 47 19
M  V30 51 1 48 21
M  V30 52 1 49 22
M  V30 53 1 23 50 CFG=3
M  V30 54 1 11 51 CFG=3
M  V30 END BOND
M  V30 END CTAB
M  END
>  <i_epik_Tot_Q>  (1) 
1

>  <i_epik_Tot_abs_Q>  (1) 
1

>  <i_i_glide_confnum>  (1) 
5

>  <i_i_glide_lignum>  (1) 
105

>  <i_i_glide_posenum>  (1) 
300

>  <i_i_glide_rotatable_bonds>  (1) 
5

>  <i_lp_mmshare_version>  (1) 
72125

>  <i_m_source_file_index>  (1) 
56

>  <i_f3d_flags>  (1) 
0

>  <num_sample>  (1) 
100

>  <b_lp_Chiralities_Consistent>  (1) 
1

>  <r_epik_Charging_Adjusted_Penalty>  (1) 
0.1887110856522376

>  <r_epik_Ionization_Penalty>  (1) 
0.094355642401006162

>  <r_epik_Ionization_Penalty_Charging>  (1) 
0.094355542826118813

>  <r_epik_Ionization_Penalty_Neutral>  (1) 
9.9574887353862298e-08

>  <r_epik_State_Penalty>  (1) 
0.094355542826118799

>  <r_glide_ring_energy>  (1) 
0.36602117891308106

>  <r_i_docking_score>  (1) 
-5.0225576124489724

>  <r_i_glide_ecoul>  (1) 
-2.0461285126305264

>  <r_i_glide_eff_state_penalty>  (1) 
0.094355542826118799

>  <r_i_glide_einternal>  (1) 
5.2508632445872507

>  <r_i_glide_emodel>  (1) 
-37.009456447286389

>  <r_i_glide_emodel_strain>  (1) 
1.9242533365524253

>  <r_i_glide_energy>  (1) 
-29.324832154966259

>  <r_i_glide_erotb>  (1) 
0.49519417565235591

>  <r_i_glide_esite>  (1) 
-0.021583018605709374

>  <r_i_glide_evdw>  (1) 
-27.278703642335731

>  <r_i_glide_gscore>  (1) 
-5.1169131552750908

>  <r_i_glide_gscore_strain>  (1) 
0

>  <r_i_glide_hbond>  (1) 
0

>  <r_i_glide_ligand_efficiency>  (1) 
-0.21837207010647705

>  <r_i_glide_ligand_efficiency_ln>  (1) 
-1.2144999727246675

>  <r_i_glide_ligand_efficiency_sa>  (1) 
-0.62102111949764127

>  <r_i_glide_lipo>  (1) 
-1.8070115374997164

>  <r_i_glide_metal>  (1) 
-0

>  <r_i_glide_rewards>  (1) 
-2.1126583158106551

>  <r_lp_Energy>  (1) 
18.143661999999999

>  <r_lp_tautomer_probability>  (1) 
0.99995000000000001

>  <s_epik_cmdline>  (1) 
J2VwaWtfcHl0aG9uJywgJy1waHQnLCAnMS4wJywgJy1waCcsICc3LjQnLCAnLXRuJywgJzgnLCAnLW1hJywgJzUwMCcsICctaW1hZScsICc8aW5maWxlLm1hZT4nLCAnLW9tYWUnLCAnPG91dGZpbGUubWFlPic=

>  <s_epik_input>  (1) 
W0NIMl0xW0NIMl1bQ0gyXU9bQ0BASF0xW0NASF0yW0NASF0oW09IXSlbQ0gyXU4oW0NASF0oW0NASF0yMylbQ0gyXTMpW0NASF0oW0NIM10pXFtDSF09W0NIXVxbQ0BASF00U1tDSDJdW0NIMl1DND1P

>  <s_glide_docking_method>  (1) 
confgen

>  <s_i_glide_gridfile>  (1) 
gpcr_drd2_6luq_protein_autoprepared_prepared

>  <s_lp_Force_Field>  (1) 
S-OPLS

>  <s_lp_Variant>  (1) 
DiffSBDD_55_num_sample_100-6

>  <s_m_source_file>  (1) 
generated__ligand_DiffSBDD_2026-05-06_prepared.sdf

>  <GenAI_Model>  (1) 
DiffSBDD

>  <Protein>  (1) 
generic_title2

$$$$
DiffSBDD_83_num_sample_100
     RDKit          3D

  0  0  0  0  0  0  0  0  0  0999 V3000
M  V30 BEGIN CTAB
M  V30 COUNTS 48 52 0 0 1
M  V30 BEGIN ATOM
M  V30 1 C 9.916635 7.082819 -10.630371 0
M  V30 2 C 3.434867 7.182324 -17.226630 0
M  V30 3 C 5.814550 7.742841 -17.056136 0 CFG=1
M  V30 4 C 6.203072 6.969355 -13.747824 0
M  V30 5 C 5.744188 6.510817 -16.174749 0 CFG=2
M  V30 6 N 7.045723 5.769317 -11.490070 0
M  V30 7 C 5.443370 7.769609 -18.522122 0
M  V30 8 C 10.630461 7.328749 -8.310796 0
M  V30 9 C 4.571331 7.459541 -16.291631 0 CFG=2
M  V30 10 C 6.516917 6.404130 -14.906678 0
M  V30 11 C 11.397591 8.091606 -7.248934 0
M  V30 12 C 8.404379 5.158435 -11.348971 0 CFG=1
M  V30 13 C 9.200346 5.456483 -8.954031 0
M  V30 14 C 7.654558 5.666767 -14.709202 0
M  V30 15 C 10.630739 7.786030 -9.643680 0
M  V30 16 C 4.022517 7.227112 -18.638927 0
M  V30 17 C 9.104730 5.057453 -12.761103 0
M  V30 18 C 9.915445 6.161499 -7.967398 0
M  V30 19 C 8.043159 5.799442 -13.451045 0
M  V30 20 C 10.531805 8.481836 -6.041307 0
M  V30 21 O 11.245023 9.367489 -5.200247 0
M  V30 22 C 7.212919 6.722173 -12.570010 0 CFG=1
M  V30 23 C 9.198861 5.913520 -10.288357 0
M  V30 24 H 9.915099 7.442627 -11.647770 0
M  V30 25 H 3.005517 6.208554 -16.994410 0
M  V30 26 H 2.670085 7.948855 -17.095448 0
M  V30 27 H 6.415995 8.569067 -16.691623 0
M  V30 28 H 5.337506 7.596173 -13.600692 0
M  V30 29 H 5.668442 5.555500 -16.688091 0
M  V30 30 H 6.861734 6.321675 -10.649363 0
M  V30 31 H 6.161118 7.205121 -19.117877 0
M  V30 32 H 5.434833 8.800193 -18.876331 0
M  V30 33 H 4.356116 8.169294 -15.495323 0
M  V30 34 H 11.824648 8.989999 -7.696485 0
M  V30 35 H 12.234731 7.470850 -6.939589 0
M  V30 36 H 8.256686 4.148124 -10.967704 0
M  V30 37 H 8.647837 4.569202 -8.686276 0
M  V30 38 H 8.113055 5.017477 -15.440539 0
M  V30 39 H 11.176301 8.679471 -9.909149 0
M  V30 40 H 4.036830 6.231770 -19.084039 0
M  V30 41 H 3.434950 7.895388 -19.266463 0
M  V30 42 H 10.074985 5.547572 -12.830879 0
M  V30 43 H 9.176041 4.032870 -13.126379 0
M  V30 44 H 9.912453 5.807755 -6.946939 0
M  V30 45 H 10.231898 7.602495 -5.470997 0
M  V30 46 H 9.616735 8.969300 -6.377675 0
M  V30 47 H 11.992568 8.912666 -4.843756 0
M  V30 48 H 7.759411 7.620357 -12.282273 0
M  V30 END ATOM
M  V30 BEGIN BOND
M  V30 1 1 5 3
M  V30 2 1 7 3
M  V30 3 1 9 2
M  V30 4 1 9 3
M  V30 5 1 9 5
M  V30 6 2 10 4
M  V30 7 1 10 5
M  V30 8 1 11 8
M  V30 9 1 12 6
M  V30 10 1 14 10
M  V30 11 2 15 1
M  V30 12 1 15 8
M  V30 13 1 16 2
M  V30 14 1 16 7
M  V30 15 1 17 12
M  V30 16 2 18 8
M  V30 17 1 18 13
M  V30 18 2 19 14
M  V30 19 1 19 17
M  V30 20 1 20 11
M  V30 21 1 21 20
M  V30 22 1 22 4
M  V30 23 1 22 6
M  V30 24 1 22 19
M  V30 25 1 23 1
M  V30 26 1 23 12
M  V30 27 2 23 13
M  V30 28 1 24 1
M  V30 29 1 25 2
M  V30 30 1 26 2
M  V30 31 1 3 27 CFG=1
M  V30 32 1 28 4
M  V30 33 1 5 29 CFG=3
M  V30 34 1 30 6
M  V30 35 1 31 7
M  V30 36 1 32 7
M  V30 37 1 9 33 CFG=1
M  V30 38 1 34 11
M  V30 39 1 35 11
M  V30 40 1 12 36 CFG=1
M  V30 41 1 37 13
M  V30 42 1 38 14
M  V30 43 1 39 15
M  V30 44 1 40 16
M  V30 45 1 41 16
M  V30 46 1 42 17
M  V30 47 1 43 17
M  V30 48 1 44 18
M  V30 49 1 45 20
M  V30 50 1 46 20
M  V30 51 1 47 21
M  V30 52 1 22 48 CFG=1
M  V30 END BOND
M  V30 END CTAB
M  END
>  <i_epik_Tot_Q>  (1) 
0

>  <i_epik_Tot_abs_Q>  (1) 
0

>  <i_i_glide_confnum>  (1) 
123

>  <i_i_glide_lignum>  (1) 
172

>  <i_i_glide_posenum>  (1) 
239

>  <i_i_glide_rotatable_bonds>  (1) 
5

>  <i_lp_mmshare_version>  (1) 
72125

>  <i_m_source_file_index>  (1) 
84

>  <i_f3d_flags>  (1) 
0

>  <num_sample>  (1) 
100

>  <b_lp_Chiralities_Consistent>  (1) 
1

>  <r_epik_Charging_Adjusted_Penalty>  (1) 
0.79484472859609101

>  <r_epik_Ionization_Penalty>  (1) 
0.79484480768617471

>  <r_epik_Ionization_Penalty_Charging>  (1) 
0

>  <r_epik_Ionization_Penalty_Neutral>  (1) 
0.79484480768617471

>  <r_epik_State_Penalty>  (1) 
0.79484472859609101

>  <r_glide_ring_energy>  (1) 
0

>  <r_i_docking_score>  (1) 
-5.0167585738340525

>  <r_i_glide_ecoul>  (1) 
-2.0385031199872929

>  <r_i_glide_eff_state_penalty>  (1) 
0.79484472859609101

>  <r_i_glide_einternal>  (1) 
4.1518825230826319

>  <r_i_glide_emodel>  (1) 
-42.616926554337795

>  <r_i_glide_emodel_strain>  (1) 
0.95936242151199735

>  <r_i_glide_energy>  (1) 
-34.365471078951977

>  <r_i_glide_erotb>  (1) 
0.7823539513187745

>  <r_i_glide_esite>  (1) 
0

>  <r_i_glide_evdw>  (1) 
-32.326967958964687

>  <r_i_glide_gscore>  (1) 
-5.8116033024301439

>  <r_i_glide_gscore_strain>  (1) 
0

>  <r_i_glide_hbond>  (1) 
-0.16

>  <r_i_glide_ligand_efficiency>  (1) 
-0.2181199379927849

>  <r_i_glide_ligand_efficiency_ln>  (1) 
-1.2130977126048048

>  <r_i_glide_ligand_efficiency_sa>  (1) 
-0.62030408930495196

>  <r_i_glide_lipo>  (1) 
-2.2989208878025886

>  <r_i_glide_metal>  (1) 
-0

>  <r_i_glide_rewards>  (1) 
-2.2129125000000012

>  <r_lp_Energy>  (1) 
34.739830999999995

>  <s_epik_cmdline>  (1) 
J2VwaWtfcHl0aG9uJywgJy1waHQnLCAnMS4wJywgJy1waCcsICc3LjQnLCAnLXRuJywgJzgnLCAnLW1hJywgJzUwMCcsICctaW1hZScsICc8aW5maWxlLm1hZT4nLCAnLW9tYWUnLCAnPG91dGZpbGUubWFlPic=

>  <s_epik_input>  (1) 
W09IXVtDSDJdW0NIMl1jMVtjSF1bY0hdYyhbY0hdW2NIXTEpW0NASF0oW0NIMl0yKVtOSF1bQ0BIXShDMjMpW0NIXT1DKFtDSF09MylbQ0BIXTRbQ0BASF0oW0NAQEhdNDUpW0NIMl1bQ0gyXVtDSDJdNQ==

>  <s_glide_docking_method>  (1) 
confgen

>  <s_i_glide_gridfile>  (1) 
gpcr_drd2_6luq_protein_autoprepared_prepared

>  <s_lp_Force_Field>  (1) 
S-OPLS

>  <s_lp_Variant>  (1) 
DiffSBDD_83_num_sample_100-4

>  <s_m_source_file>  (1) 
generated__ligand_DiffSBDD_2026-05-06_prepared.sdf

>  <GenAI_Model>  (1) 
DiffSBDD

>  <Protein>  (1) 
generic_title2

$$$$
DiffSBDD_21_num_sample_100
     RDKit          3D

  0  0  0  0  0  0  0  0  0  0999 V3000
M  V30 BEGIN CTAB
M  V30 COUNTS 68 72 0 0 1
M  V30 BEGIN ATOM
M  V30 1 C 8.338859 3.144406 -20.881401 0
M  V30 2 C 7.324583 2.080259 -16.327554 0
M  V30 3 C 10.944772 7.441552 -9.406256 0
M  V30 4 C 9.930148 0.542980 -18.995245 0 CFG=2
M  V30 5 C 7.891612 5.769301 -11.131197 0
M  V30 6 C 7.834838 3.341394 -14.284893 0
M  V30 7 C 8.805413 -0.426779 -18.504656 0
M  V30 8 O 5.884804 0.106748 -16.394241 0
M  V30 9 C 9.191414 6.133120 -8.327914 0
M  V30 10 C 10.230853 0.178488 -20.466181 0
M  V30 11 C 7.434839 3.283893 -17.087195 0
M  V30 12 O 8.026785 3.369287 -12.923586 0
M  V30 13 C 8.200085 -0.216248 -17.092529 0
M  V30 14 F 11.582195 7.862642 -10.523690 0
M  V30 15 C 9.222075 3.983848 -12.452957 0
M  V30 16 C 11.996691 2.842755 -18.377149 0
M  V30 17 C 7.934436 4.527310 -15.043409 0
M  V30 18 C 10.741201 7.439478 -6.975763 0
M  V30 19 F 11.754064 3.095204 -17.091657 0
M  V30 20 S 11.408736 0.169300 -17.991368 0
M  V30 21 C 7.218675 3.282953 -18.604001 0
M  V30 22 C 7.739668 4.497217 -16.434661 0
M  V30 23 O 7.444725 0.973056 -14.177705 0
M  V30 24 C 6.984237 0.748488 -17.014139 0 CFG=2
M  V30 25 F 11.171671 7.860131 -5.762267 0
M  V30 26 C 11.393204 7.873543 -8.142323 0
M  V30 27 C 12.583387 1.437391 -18.529562 0
M  V30 28 F 12.904352 3.720894 -18.803147 0
M  V30 29 C 10.713055 3.040502 -19.195380 0
M  V30 30 C 9.643502 6.569298 -7.068353 0
M  V30 31 C 9.342212 6.115823 -10.869800 0 CFG=1
M  V30 32 C 9.567008 2.058487 -18.834269 0 CFG=1
M  V30 33 C 8.203879 2.472941 -19.498026 0 CFG=2
M  V30 34 C 9.834839 6.569305 -9.511723 0
M  V30 35 C 8.934567 4.681985 -11.144089 0 CFG=1
M  V30 36 C 7.531492 2.119783 -14.921986 0
M  V30 37 H 8.772068 4.142621 -20.812837 0
M  V30 38 H 8.956173 2.558186 -21.561194 0
M  V30 39 H 7.360801 3.252460 -21.351463 0
M  V30 40 H 7.469824 6.066075 -12.089139 0
M  V30 41 H 7.187593 5.769293 -10.302278 0
M  V30 42 H 9.231942 -1.430667 -18.511443 0
M  V30 43 H 7.996220 -0.498691 -19.230602 0
M  V30 44 H 6.006519 0.119195 -15.455332 0
M  V30 45 H 8.342736 5.468614 -8.388277 0
M  V30 46 H 9.348952 0.293169 -21.095577 0
M  V30 47 H 11.020739 0.788453 -20.900224 0
M  V30 48 H 10.546966 -0.860851 -20.556068 0
M  V30 49 H 8.972630 0.055007 -16.374912 0
M  V30 50 H 7.864495 -1.202643 -16.767290 0
M  V30 51 H 9.962008 3.203164 -12.291675 0
M  V30 52 H 9.669673 4.692479 -13.149156 0
M  V30 53 H 8.160477 5.463690 -14.555325 0
M  V30 54 H 6.190536 2.983662 -18.813255 0
M  V30 55 H 7.257336 4.325448 -18.922477 0
M  V30 56 H 7.820194 5.410852 -17.005209 0
M  V30 57 H 7.757136 0.200738 -14.624192 0
M  V30 58 H 6.588160 0.904580 -18.010549 0
M  V30 59 H 12.239065 8.540661 -8.070188 0
M  V30 60 H 13.491527 1.341008 -17.933818 0
M  V30 61 H 12.866537 1.249937 -19.565004 0
M  V30 62 H 10.368069 4.062297 -19.031679 0
M  V30 63 H 10.958836 2.973352 -20.254714 0
M  V30 64 H 9.142549 6.235774 -6.171312 0
M  V30 65 H 9.855274 6.645488 -11.669984 0
M  V30 66 H 9.491432 2.167025 -17.759262 0
M  V30 67 H 7.671622 1.558297 -19.733942 0
M  V30 68 H 8.911511 4.011856 -10.291672 0
M  V30 END ATOM
M  V30 BEGIN BOND
M  V30 1 1 7 4
M  V30 2 1 4 10 CFG=3
M  V30 3 2 11 2
M  V30 4 1 12 6
M  V30 5 1 13 7
M  V30 6 1 14 3
M  V30 7 1 15 12
M  V30 8 1 17 6
M  V30 9 1 19 16
M  V30 10 1 20 4
M  V30 11 1 21 11
M  V30 12 1 22 11
M  V30 13 2 22 17
M  V30 14 1 24 2
M  V30 15 1 24 8
M  V30 16 1 24 13
M  V30 17 1 25 18
M  V30 18 1 26 3
M  V30 19 2 26 18
M  V30 20 1 27 16
M  V30 21 1 27 20
M  V30 22 1 28 16
M  V30 23 1 29 16
M  V30 24 2 30 9
M  V30 25 1 30 18
M  V30 26 1 31 5
M  V30 27 1 32 4
M  V30 28 1 32 29
M  V30 29 1 33 1
M  V30 30 1 33 21
M  V30 31 1 33 32
M  V30 32 2 34 3
M  V30 33 1 34 9
M  V30 34 1 34 31
M  V30 35 1 35 5
M  V30 36 1 35 15
M  V30 37 1 35 31
M  V30 38 1 36 2
M  V30 39 2 36 6
M  V30 40 1 36 23
M  V30 41 1 37 1
M  V30 42 1 38 1
M  V30 43 1 39 1
M  V30 44 1 40 5
M  V30 45 1 41 5
M  V30 46 1 42 7
M  V30 47 1 43 7
M  V30 48 1 44 8
M  V30 49 1 45 9
M  V30 50 1 46 10
M  V30 51 1 47 10
M  V30 52 1 48 10
M  V30 53 1 49 13
M  V30 54 1 50 13
M  V30 55 1 51 15
M  V30 56 1 52 15
M  V30 57 1 53 17
M  V30 58 1 54 21
M  V30 59 1 55 21
M  V30 60 1 56 22
M  V30 61 1 57 23
M  V30 62 1 24 58 CFG=3
M  V30 63 1 59 26
M  V30 64 1 60 27
M  V30 65 1 61 27
M  V30 66 1 62 29
M  V30 67 1 63 29
M  V30 68 1 64 30
M  V30 69 1 31 65 CFG=3
M  V30 70 1 32 66 CFG=1
M  V30 71 1 33 67 CFG=3
M  V30 72 1 35 68 CFG=1
M  V30 END BOND
M  V30 END CTAB
M  END
>  <i_epik_Tot_Q>  (1) 
0

>  <i_epik_Tot_abs_Q>  (1) 
0

>  <i_i_glide_confnum>  (1) 
68

>  <i_i_glide_lignum>  (1) 
33

>  <i_i_glide_posenum>  (1) 
259

>  <i_i_glide_rotatable_bonds>  (1) 
6

>  <i_lp_mmshare_version>  (1) 
72125

>  <i_m_source_file_index>  (1) 
22

>  <i_f3d_flags>  (1) 
0

>  <num_sample>  (1) 
100

>  <b_lp_Chiralities_Consistent>  (1) 
1

>  <r_epik_Charging_Adjusted_Penalty>  (1) 
0

>  <r_epik_Ionization_Penalty>  (1) 
0.0009051571753108589

>  <r_epik_Ionization_Penalty_Charging>  (1) 
0

>  <r_epik_Ionization_Penalty_Neutral>  (1) 
0.0009051571753108589

>  <r_epik_State_Penalty>  (1) 
-0

>  <r_glide_ring_energy>  (1) 
0

>  <r_i_docking_score>  (1) 
-5.0137157509263179

>  <r_i_glide_ecoul>  (1) 
-1.5103765269152603

>  <r_i_glide_eff_state_penalty>  (1) 
-0

>  <r_i_glide_einternal>  (1) 
6.5337287891622911

>  <r_i_glide_emodel>  (1) 
-46.795029361675184

>  <r_i_glide_emodel_strain>  (1) 
0.54230680968261424

>  <r_i_glide_energy>  (1) 
-39.938113540415713

>  <r_i_glide_erotb>  (1) 
0.29906164395455315

>  <r_i_glide_esite>  (1) 
0

>  <r_i_glide_evdw>  (1) 
-38.427737013500455

>  <r_i_glide_gscore>  (1) 
-5.0137157509263179

>  <r_i_glide_gscore_strain>  (1) 
0

>  <r_i_glide_hbond>  (1) 
0

>  <r_i_glide_ligand_efficiency>  (1) 
-0.13926988197017551

>  <r_i_glide_ligand_efficiency_ln>  (1) 
-1.0938573219062804

>  <r_i_glide_ligand_efficiency_sa>  (1) 
-0.45985901822766106

>  <r_i_glide_lipo>  (1) 
-1.8239785222695921

>  <r_i_glide_metal>  (1) 
-0

>  <r_i_glide_rewards>  (1) 
-1.340855542898967

>  <r_lp_Energy>  (1) 
62.008314999999996

>  <r_lp_tautomer_probability>  (1) 
1

>  <s_epik_cmdline>  (1) 
J2VwaWtfcHl0aG9uJywgJy1waHQnLCAnMS4wJywgJy1waCcsICc3LjQnLCAnLXRuJywgJzgnLCAnLW1hJywgJzUwMCcsICctaW1hZScsICc8aW5maWxlLm1hZT4nLCAnLW9tYWUnLCAnPG91dGZpbGUubWFlPic=

>  <s_epik_input>  (1) 
UzFbQ0gyXUMoRikoRilbQ0gyXVtDQEhdKFtDQEBdMTJbQ0gzXSlbQ0BIXShbQ0gzXSlbQ0gyXWMzYyhbQ0BIXShbT0hdKVtDSDJdW0NIMl0yKWMoW09IXSljKFtjSF1bY0hdMylPW0NIMl1bQ0BASF00W0NIMl1bQ0hdNGM1W2NIXVtjSF1jKEYpW2NIXWM1Rg==

>  <s_glide_docking_method>  (1) 
confgen

>  <s_i_glide_gridfile>  (1) 
gpcr_drd2_6luq_protein_autoprepared_prepared

>  <s_lp_Force_Field>  (1) 
S-OPLS

>  <s_lp_Variant>  (1) 
DiffSBDD_21_num_sample_100-1

>  <s_m_source_file>  (1) 
generated__ligand_DiffSBDD_2026-05-06_prepared.sdf

>  <GenAI_Model>  (1) 
DiffSBDD

>  <Protein>  (1) 
generic_title2

$$$$
DiffSBDD_45_num_sample_100
     RDKit          3D

  0  0  0  0  0  0  0  0  0  0999 V3000
M  V30 BEGIN CTAB
M  V30 COUNTS 63 65 0 0 1
M  V30 BEGIN ATOM
M  V30 1 C 7.422598 -0.191197 -14.678461 0
M  V30 2 C 10.156083 6.639249 -8.892262 0
M  V30 3 C 7.802303 0.032436 -16.149669 0
M  V30 4 C 11.392635 9.056989 -6.146475 0 CFG=1
M  V30 5 C 11.519594 8.054603 -7.341859 0 CFG=1
M  V30 6 C 11.478618 7.131272 -4.532954 0
M  V30 7 C 6.900696 4.918776 -13.874372 0
M  V30 8 C 6.974810 2.315327 -14.311352 0 CFG=2
M  V30 9 O 5.745089 4.948450 -14.291520 0
M  V30 10 N 10.299308 7.230394 -7.550075 0
M  V30 11 Cl 11.834826 8.969325 -8.846117 0
M  V30 12 C 9.197576 5.292252 -11.712472 0 CFG=1
M  V30 13 C 10.012765 5.615079 -14.136138 0
M  V30 14 C 7.401651 1.404215 -16.642956 0
M  V30 15 C 8.343535 5.907043 -10.590713 0
M  V30 16 N 11.759044 8.537655 -4.822858 0
M  V30 17 C 9.037285 3.765761 -11.777803 0
M  V30 18 C 8.894728 5.782065 -9.151386 0
M  V30 19 C 7.034870 2.412521 -15.835580 0
M  V30 20 C 10.260775 6.169320 -6.550009 0
M  V30 21 C 8.987022 6.021349 -13.063179 0 CFG=1
M  V30 22 C 7.615841 3.566592 -13.677523 0 CFG=2
M  V30 23 F 12.158827 10.130539 -6.311465 0
M  V30 24 O 7.775159 3.369168 -12.291657 0
M  V30 25 C 7.692332 1.038864 -13.807451 0
M  V30 26 C 10.163537 6.662998 -5.114040 0
M  V30 27 N 7.592636 6.045336 -13.563024 0
M  V30 28 C 6.973201 7.368146 -13.701261 0
M  V30 29 H 8.000539 -1.025127 -14.291777 0
M  V30 30 H 6.370696 -0.468304 -14.602569 0
M  V30 31 H 11.034842 6.045452 -9.091698 0
M  V30 32 H 10.119498 7.425431 -9.643064 0
M  V30 33 H 7.332105 -0.728810 -16.771841 0
M  V30 34 H 8.877078 -0.070650 -16.291744 0
M  V30 35 H 10.371016 9.437630 -6.129806 0
M  V30 36 H 12.390336 7.412215 -7.220648 0
M  V30 37 H 11.480534 6.984135 -3.452137 0
M  V30 38 H 12.235096 6.470492 -4.930671 0
M  V30 39 H 5.928961 2.256483 -14.011671 0
M  V30 40 H 10.234813 5.478474 -11.448814 0
M  V30 41 H 10.962458 6.139618 -13.997872 0
M  V30 42 H 10.234850 4.569307 -14.095052 0
M  V30 43 H 9.652299 5.769319 -15.153923 0
M  V30 44 H 7.423002 1.559009 -17.711953 0
M  V30 45 H 8.234857 6.969253 -10.800237 0
M  V30 46 H 7.333925 5.497835 -10.628879 0
M  V30 47 H 12.730301 8.753816 -4.625173 0
M  V30 48 H 9.145412 3.369351 -10.771986 0
M  V30 49 H 9.835269 3.290855 -12.346182 0
M  V30 50 H 8.107412 6.120850 -8.480554 0
M  V30 51 H 9.074939 4.740856 -8.886214 0
M  V30 52 H 6.763684 3.362335 -16.268662 0
M  V30 53 H 9.375269 5.557324 -6.708435 0
M  V30 54 H 11.114683 5.502687 -6.670438 0
M  V30 55 H 9.227103 7.062036 -12.838617 0
M  V30 56 H 8.559678 3.573720 -14.190943 0
M  V30 57 H 8.768899 1.203187 -13.775207 0
M  V30 58 H 7.394489 0.829109 -12.779683 0
M  V30 59 H 9.434862 7.461297 -5.091696 0
M  V30 60 H 9.807617 5.854268 -4.482038 0
M  V30 61 H 6.057795 7.371334 -14.295214 0
M  V30 62 H 6.725926 7.761067 -12.714556 0
M  V30 63 H 7.653977 8.068738 -14.181040 0
M  V30 END ATOM
M  V30 BEGIN BOND
M  V30 1 1 3 1
M  V30 2 1 5 4
M  V30 3 2 9 7
M  V30 4 1 10 2
M  V30 5 1 10 5
M  V30 6 1 11 5
M  V30 7 1 14 3
M  V30 8 1 15 12
M  V30 9 1 16 4
M  V30 10 1 16 6
M  V30 11 1 17 12
M  V30 12 1 18 2
M  V30 13 1 18 15
M  V30 14 1 19 8
M  V30 15 2 19 14
M  V30 16 1 20 10
M  V30 17 1 21 12
M  V30 18 1 21 13
M  V30 19 1 22 7
M  V30 20 1 22 8
M  V30 21 1 23 4
M  V30 22 1 24 17
M  V30 23 1 24 22
M  V30 24 1 25 1
M  V30 25 1 25 8
M  V30 26 1 26 6
M  V30 27 1 26 20
M  V30 28 1 27 7
M  V30 29 1 27 21
M  V30 30 1 28 27
M  V30 31 1 29 1
M  V30 32 1 30 1
M  V30 33 1 31 2
M  V30 34 1 32 2
M  V30 35 1 33 3
M  V30 36 1 34 3
M  V30 37 1 4 35 CFG=1
M  V30 38 1 5 36 CFG=1
M  V30 39 1 37 6
M  V30 40 1 38 6
M  V30 41 1 8 39 CFG=3
M  V30 42 1 12 40 CFG=1
M  V30 43 1 41 13
M  V30 44 1 42 13
M  V30 45 1 43 13
M  V30 46 1 44 14
M  V30 47 1 45 15
M  V30 48 1 46 15
M  V30 49 1 47 16
M  V30 50 1 48 17
M  V30 51 1 49 17
M  V30 52 1 50 18
M  V30 53 1 51 18
M  V30 54 1 52 19
M  V30 55 1 53 20
M  V30 56 1 54 20
M  V30 57 1 21 55 CFG=1
M  V30 58 1 22 56 CFG=3
M  V30 59 1 57 25
M  V30 60 1 58 25
M  V30 61 1 59 26
M  V30 62 1 60 26
M  V30 63 1 61 28
M  V30 64 1 62 28
M  V30 65 1 63 28
M  V30 END BOND
M  V30 END CTAB
M  END
>  <i_epik_Tot_Q>  (1) 
0

>  <i_epik_Tot_abs_Q>  (1) 
0

>  <i_i_glide_confnum>  (1) 
419

>  <i_i_glide_lignum>  (1) 
84

>  <i_i_glide_posenum>  (1) 
163

>  <i_i_glide_rotatable_bonds>  (1) 
5

>  <i_lp_mmshare_version>  (1) 
72125

>  <i_m_source_file_index>  (1) 
46

>  <i_f3d_flags>  (1) 
0

>  <num_sample>  (1) 
100

>  <b_lp_Chiralities_Consistent>  (1) 
1

>  <r_epik_Charging_Adjusted_Penalty>  (1) 
0.015133208647659156

>  <r_epik_Ionization_Penalty>  (1) 
0.015206278080010002

>  <r_epik_Ionization_Penalty_Charging>  (1) 
0

>  <r_epik_Ionization_Penalty_Neutral>  (1) 
0.015206278080010002

>  <r_epik_State_Penalty>  (1) 
0.015133208647659156

>  <r_glide_ring_energy>  (1) 
1.8515707990959711

>  <r_i_docking_score>  (1) 
-5.0126754541118057

>  <r_i_glide_ecoul>  (1) 
-1.8632035246082219

>  <r_i_glide_eff_state_penalty>  (1) 
0.015133208647659156

>  <r_i_glide_einternal>  (1) 
7.2333015936945575

>  <r_i_glide_emodel>  (1) 
-26.62812606816053

>  <r_i_glide_emodel_strain>  (1) 
0.51841970948878213

>  <r_i_glide_energy>  (1) 
-24.2852261614048

>  <r_i_glide_erotb>  (1) 
0.45657733151366331

>  <r_i_glide_esite>  (1) 
0

>  <r_i_glide_evdw>  (1) 
-22.42202263679658

>  <r_i_glide_gscore>  (1) 
-5.0278086627594645

>  <r_i_glide_gscore_strain>  (1) 
0

>  <r_i_glide_hbond>  (1) 
0

>  <r_i_glide_ligand_efficiency>  (1) 
-0.17902412336113591

>  <r_i_glide_ligand_efficiency_ln>  (1) 
-1.1570726733556449

>  <r_i_glide_ligand_efficiency_sa>  (1) 
-0.54362267869813363

>  <r_i_glide_lipo>  (1) 
-2.5414387849039968

>  <r_i_glide_metal>  (1) 
-0

>  <r_i_glide_rewards>  (1) 
-1.5423655488380681

>  <r_lp_Energy>  (1) 
27.293519

>  <s_epik_cmdline>  (1) 
J2VwaWtfcHl0aG9uJywgJy1waHQnLCAnMS4wJywgJy1waCcsICc3LjQnLCAnLXRuJywgJzgnLCAnLW1hJywgJzUwMCcsICctaW1hZScsICc8aW5maWxlLm1hZT4nLCAnLW9tYWUnLCAnPG91dGZpbGUubWFlPic=

>  <s_epik_input>  (1) 
W0NIMl0xW0NIMl1bQ0gyXVtDSF09W0NIXVtDQEhdMVtDQEBIXShDMj1PKU9bQ0gyXVtDQEBIXShbQ0BASF0oW0NIM10pTjJbQ0gzXSlbQ0gyXVtDSDJdW0NIMl1OKFtDQEBIXShDbClbQ0BASF0zRilbQ0gyXVtDSDJdW0NIMl1bTkhdMw==

>  <s_glide_docking_method>  (1) 
confgen

>  <s_i_glide_gridfile>  (1) 
gpcr_drd2_6luq_protein_autoprepared_prepared

>  <s_lp_Force_Field>  (1) 
S-OPLS

>  <s_lp_Variant>  (1) 
DiffSBDD_45_num_sample_100-3

>  <s_m_source_file>  (1) 
generated__ligand_DiffSBDD_2026-05-06_prepared.sdf

>  <GenAI_Model>  (1) 
DiffSBDD

>  <Protein>  (1) 
generic_title2

$$$$
DiffSBDD_49_num_sample_100
     RDKit          3D

  0  0  0  0  0  0  0  0  0  0999 V3000
M  V30 BEGIN CTAB
M  V30 COUNTS 52 55 0 0 1
M  V30 BEGIN ATOM
M  V30 1 N 7.834861 6.101906 -14.529539 0
M  V30 2 C 4.707107 6.967241 -17.254305 0
M  V30 3 C 6.075984 6.043094 -19.049872 0
M  V30 4 C 6.446008 4.191175 -11.209690 0
M  V30 5 C 10.675163 8.883443 -9.435241 0
M  V30 6 S 7.434835 3.531591 -15.209922 0
M  V30 7 C 5.622102 6.477407 -16.302748 0
M  V30 8 C 9.385550 6.921716 -10.278002 0 CFG=1
M  V30 9 C 7.784525 5.253509 -15.701843 0 CFG=1
M  V30 10 C 6.368745 3.566786 -12.622482 0
M  V30 11 C 9.123741 5.869633 -11.373740 0
M  V30 12 C 7.744281 5.439586 -13.461145 0
M  V30 13 C 10.722916 8.325689 -8.004102 0 CFG=2
M  V30 14 O 13.109125 8.169350 -8.291597 0
M  V30 15 C 7.763155 6.083480 -12.092023 0 CFG=1
M  V30 16 C 11.980876 7.517932 -7.750798 0
M  V30 17 C 6.774057 5.769453 -16.725418 0
M  V30 18 C 9.265172 6.365443 -8.838538 0
M  V30 19 C 4.935005 6.751632 -18.626729 0
M  V30 20 C 7.593984 3.953101 -13.471129 0 CFG=2
M  V30 21 C 10.651667 7.752281 -10.484268 0
M  V30 22 N 6.610008 5.642720 -11.299088 0
M  V30 23 C 9.479525 7.456110 -7.757276 0
M  V30 24 C 6.994900 5.552497 -18.101399 0
M  V30 25 H 7.627775 7.154444 -12.252406 0
M  V30 26 H 3.831014 7.510870 -16.931215 0
M  V30 27 H 6.248515 5.878291 -20.103005 0
M  V30 28 H 5.536863 3.971051 -10.649596 0
M  V30 29 H 7.272445 3.769510 -10.641890 0
M  V30 30 H 9.758409 9.465754 -9.491731 0
M  V30 31 H 11.490663 9.581442 -9.625677 0
M  V30 32 H 5.444392 6.647901 -15.250864 0
M  V30 33 H 8.634839 7.683578 -10.407767 0
M  V30 34 H 8.770815 5.260375 -16.168488 0
M  V30 35 H 5.455065 3.905631 -13.113862 0
M  V30 36 H 6.292756 2.481801 -12.549000 0
M  V30 37 H 9.921444 5.947256 -12.114747 0
M  V30 38 H 9.215330 4.858722 -10.975738 0
M  V30 39 H 10.715079 9.158239 -7.299544 0
M  V30 40 H 12.905546 8.444231 -9.173400 0
M  V30 41 H 11.834848 6.569271 -8.239910 0
M  V30 42 H 12.106013 7.307431 -6.691750 0
M  V30 43 H 8.276127 5.926499 -8.699163 0
M  V30 44 H 9.966815 5.543606 -8.698114 0
M  V30 45 H 4.234842 7.130149 -19.355387 0
M  V30 46 H 10.630441 8.169364 -11.488645 0
M  V30 47 H 11.545818 7.132692 -10.436365 0
M  V30 48 H 9.510628 7.001680 -6.766161 0
M  V30 49 H 8.634847 8.132905 -7.743449 0
M  V30 50 H 7.871756 5.013618 -18.429368 0
M  V30 51 H 6.634971 6.097947 -10.387484 0
M  V30 52 H 8.502046 3.499073 -13.072524 0
M  V30 END ATOM
M  V30 BEGIN BOND
M  V30 1 1 7 2
M  V30 2 1 9 1
M  V30 3 1 9 6
M  V30 4 1 10 4
M  V30 5 1 11 8
M  V30 6 2 12 1
M  V30 7 1 13 5
M  V30 8 1 15 11
M  V30 9 1 15 12
M  V30 10 1 16 13
M  V30 11 1 16 14
M  V30 12 2 17 7
M  V30 13 1 17 9
M  V30 14 1 18 8
M  V30 15 2 19 2
M  V30 16 1 19 3
M  V30 17 1 20 6
M  V30 18 1 20 10
M  V30 19 1 20 12
M  V30 20 1 21 5
M  V30 21 1 21 8
M  V30 22 1 22 4
M  V30 23 1 22 15
M  V30 24 1 23 13
M  V30 25 1 23 18
M  V30 26 2 24 3
M  V30 27 1 24 17
M  V30 28 1 15 25 CFG=3
M  V30 29 1 26 2
M  V30 30 1 27 3
M  V30 31 1 28 4
M  V30 32 1 29 4
M  V30 33 1 30 5
M  V30 34 1 31 5
M  V30 35 1 32 7
M  V30 36 1 8 33 CFG=1
M  V30 37 1 9 34 CFG=3
M  V30 38 1 35 10
M  V30 39 1 36 10
M  V30 40 1 37 11
M  V30 41 1 38 11
M  V30 42 1 13 39 CFG=1
M  V30 43 1 40 14
M  V30 44 1 41 16
M  V30 45 1 42 16
M  V30 46 1 43 18
M  V30 47 1 44 18
M  V30 48 1 45 19
M  V30 49 1 46 21
M  V30 50 1 47 21
M  V30 51 1 48 23
M  V30 52 1 49 23
M  V30 53 1 50 24
M  V30 54 1 51 22
M  V30 55 1 20 52 CFG=1
M  V30 END BOND
M  V30 END CTAB
M  END
>  <i_epik_Tot_Q>  (1) 
0

>  <i_epik_Tot_abs_Q>  (1) 
0

>  <i_i_glide_confnum>  (1) 
25

>  <i_i_glide_lignum>  (1) 
92

>  <i_i_glide_posenum>  (1) 
186

>  <i_i_glide_rotatable_bonds>  (1) 
5

>  <i_lp_mmshare_version>  (1) 
72125

>  <i_m_source_file_index>  (1) 
50

>  <i_f3d_flags>  (1) 
0

>  <num_sample>  (1) 
100

>  <b_lp_Chiralities_Consistent>  (1) 
1

>  <r_epik_Charging_Adjusted_Penalty>  (1) 
0.1447540794995397

>  <r_epik_Ionization_Penalty>  (1) 
0.14481163516182699

>  <r_epik_Ionization_Penalty_Charging>  (1) 
0

>  <r_epik_Ionization_Penalty_Neutral>  (1) 
0.14481163516182699

>  <r_epik_State_Penalty>  (1) 
0.1447540794995397

>  <r_glide_ring_energy>  (1) 
0.012110018449817897

>  <r_i_docking_score>  (1) 
-5.0062052277756433

>  <r_i_glide_ecoul>  (1) 
-3.1718552874884391

>  <r_i_glide_eff_state_penalty>  (1) 
0.1447540794995397

>  <r_i_glide_einternal>  (1) 
7.8431601590372129

>  <r_i_glide_emodel>  (1) 
-30.7041668620626

>  <r_i_glide_emodel_strain>  (1) 
1.1008173311343725

>  <r_i_glide_energy>  (1) 
-30.459385604490734

>  <r_i_glide_erotb>  (1) 
0.63990235469448886

>  <r_i_glide_esite>  (1) 
0

>  <r_i_glide_evdw>  (1) 
-27.287530317002297

>  <r_i_glide_gscore>  (1) 
-5.1509593072751834

>  <r_i_glide_gscore_strain>  (1) 
0

>  <r_i_glide_hbond>  (1) 
-0.14576306036143497

>  <r_i_glide_ligand_efficiency>  (1) 
-0.2085918844906518

>  <r_i_glide_ligand_efficiency_ln>  (1) 
-1.1982146307958723

>  <r_i_glide_ligand_efficiency_sa>  (1) 
-0.60168311155251031

>  <r_i_glide_lipo>  (1) 
-1.8638530481745601

>  <r_i_glide_metal>  (1) 
-0

>  <r_i_glide_rewards>  (1) 
-1.9410907444602969

>  <r_lp_Energy>  (1) 
25.428964000000001

>  <r_lp_tautomer_probability>  (1) 
0.99998399999999998

>  <s_epik_Chemistry_Notes>  (1) 
This compound has an imine and may undergo hydrolysis. This compound contains an acetal/aminal-like group ( X-CH(R)-Y where X, Y are N, S, or O) that may be acid/base labile, releasing an aldehyde.

>  <s_epik_cmdline>  (1) 
J2VwaWtfcHl0aG9uJywgJy1waHQnLCAnMS4wJywgJy1waCcsICc3LjQnLCAnLXRuJywgJzgnLCAnLW1hJywgJzUwMCcsICctaW1hZScsICc8aW5maWxlLm1hZT4nLCAnLW9tYWUnLCAnPG91dGZpbGUubWFlPic=

>  <s_epik_input>  (1) 
W2NIXTFbY0hdW2NIXVtjSF1bY0hdYzFbQ0BASF0oW05IXTIpU1tDQEBIXShbQ0BIXTIzKVtDSDJdW0NIMl1OPUMzW0NIMl1bQ0BIXTRbQ0gyXVtDSDJdW0NASF0oW0NIMl1bQ0gyXTQpW0NIMl1bT0hd

>  <s_glide_docking_method>  (1) 
confgen

>  <s_i_glide_gridfile>  (1) 
gpcr_drd2_6luq_protein_autoprepared_prepared

>  <s_lp_Force_Field>  (1) 
S-OPLS

>  <s_lp_Variant>  (1) 
DiffSBDD_49_num_sample_100-2

>  <s_m_source_file>  (1) 
generated__ligand_DiffSBDD_2026-05-06_prepared.sdf

>  <GenAI_Model>  (1) 
DiffSBDD

>  <Protein>  (1) 
generic_title2

$$$$
DiffSBDD_91_num_sample_100
     RDKit          3D

  0  0  0  0  0  0  0  0  0  0999 V3000
M  V30 BEGIN CTAB
M  V30 COUNTS 91 94 0 0 1
M  V30 BEGIN ATOM
M  V30 1 C 5.710619 -4.413594 -20.074445 0
M  V30 2 C 4.812815 -5.306750 -19.458088 0
M  V30 3 O 9.043760 -1.161045 -21.782982 0 CHG=-1
M  V30 4 C 7.154653 5.880044 -17.682480 0 CFG=2
M  V30 5 O 10.049883 -0.609309 -19.878267 0
M  V30 6 F 6.634802 7.210276 -15.746046 0
M  V30 7 C 10.704963 6.421905 -8.297332 0
M  V30 8 C 7.503796 -5.218321 -18.622931 0
M  V30 9 C 6.498997 0.106490 -19.584212 0 CFG=2
M  V30 10 F 8.751986 4.191479 -17.925009 0
M  V30 11 C 5.394484 6.730409 -19.920938 0 CFG=2
M  V30 12 C 4.671061 6.554935 -21.259427 0
M  V30 13 C 7.058109 -4.366088 -19.656069 0
M  V30 14 O 5.823032 2.867784 -22.215327 0
M  V30 15 C 8.082328 5.007307 -10.978449 0
M  V30 16 C 6.134718 5.382225 -19.786760 0 CFG=2
M  V30 17 C 9.152068 -1.176085 -20.535938 0
M  V30 18 C 5.209963 4.326994 -20.387975 0 CFG=1
M  V30 19 C 5.259039 -6.154493 -18.425082 0
M  V30 20 C 8.694619 6.019855 -7.885089 0
M  V30 21 C 4.427077 7.030193 -18.752292 0
M  V30 22 C 8.029557 -3.401640 -20.320238 0
M  V30 23 O 7.089019 -2.220990 -17.491729 0
M  V30 24 C 4.235061 5.086619 -21.283725 0
M  V30 25 F 9.250227 5.769301 -16.563804 0
M  V30 26 S 7.830786 2.694012 -13.091712 0
M  V30 27 C 9.274038 5.829806 -10.453398 0
M  V30 28 C 8.244204 5.009872 -16.999746 0
M  V30 29 N 7.898796 5.314114 -12.404178 0
M  V30 30 F 9.834829 4.265103 -8.801350 0
M  V30 31 N 7.759169 4.926397 -14.589190 0
M  V30 32 C 8.287144 -1.942481 -18.192436 0
M  V30 33 Cl 4.157988 -7.248613 -17.672050 0
M  V30 34 C 9.632163 5.561449 -8.986287 0
M  V30 35 C 6.089079 6.556607 -16.770123 0 CFG=1
M  V30 36 O 6.406729 4.969315 -18.459480 0
M  V30 37 C 4.978453 0.298791 -19.573869 0
M  V30 38 C 9.573591 7.255076 -7.691280 0
M  V30 39 C 6.604106 -6.110490 -18.008271 0
M  V30 40 C 5.941440 3.148600 -21.022382 0
M  V30 41 C 8.059506 -1.945173 -19.744419 0 CFG=1
M  V30 42 C 7.187364 1.187264 -20.458989 0
M  V30 43 O 6.685053 2.470190 -20.138945 0
M  V30 44 C 7.773213 4.137761 -15.825472 0
M  V30 45 N 6.769065 -1.278938 -20.069286 0 CHG=1
M  V30 46 C 5.096417 7.520355 -17.456433 0
M  V30 47 F 7.812266 6.770287 -18.428554 0
M  V30 48 C 7.823514 4.348439 -13.364905 0
M  V30 49 H 5.366496 -3.766404 -20.867466 0
M  V30 50 H 3.781037 -5.341847 -19.777589 0
M  V30 51 H 11.268205 5.879276 -7.535646 0
M  V30 52 H 11.361284 6.969183 -8.974615 0
M  V30 53 H 8.534493 -5.185857 -18.301110 0
M  V30 54 H 6.835349 0.223968 -18.555501 0
M  V30 55 H 6.096905 7.560116 -20.005199 0
M  V30 56 H 5.379634 6.728135 -22.070839 0
M  V30 57 H 3.846414 7.252861 -21.404329 0
M  V30 58 H 7.173063 5.278564 -10.441082 0
M  V30 59 H 8.272981 3.960756 -10.757944 0
M  V30 60 H 7.063904 5.426479 -20.361116 0
M  V30 61 H 4.634891 3.897140 -19.568841 0
M  V30 62 H 7.713124 6.169193 -8.291682 0
M  V30 63 H 8.681536 5.369396 -7.014783 0
M  V30 64 H 3.745479 7.819678 -19.069129 0
M  V30 65 H 3.802920 6.169370 -18.537173 0
M  V30 66 H 7.774045 -3.388171 -21.381454 0
M  V30 67 H 9.026802 -3.844794 -20.284943 0
M  V30 68 H 7.309713 -2.462429 -16.592615 0
M  V30 69 H 4.121739 4.700406 -22.296985 0
M  V30 70 H 3.292846 4.971247 -20.768394 0
M  V30 71 H 10.137649 5.634563 -11.088572 0
M  V30 72 H 9.049745 6.889978 -10.583001 0
M  V30 73 H 7.876028 6.283093 -12.684773 0
M  V30 74 H 7.755161 5.934724 -14.657828 0
M  V30 75 H 8.645412 -0.981808 -17.821642 0
M  V30 76 H 9.034793 -2.675064 -17.891748 0
M  V30 77 H 5.501270 5.768934 -16.300890 0
M  V30 78 H 4.684929 1.224948 -19.078469 0
M  V30 79 H 4.634864 0.354581 -20.602729 0
M  V30 80 H 4.457985 -0.516900 -19.069665 0
M  V30 81 H 9.722992 7.543708 -6.650577 0
M  V30 82 H 9.270701 8.097532 -8.314542 0
M  V30 83 H 6.945131 -6.760896 -17.216466 0
M  V30 84 H 8.255812 1.230450 -20.261068 0
M  V30 85 H 7.069875 0.949157 -21.517677 0
M  V30 86 H 6.799604 3.688018 -16.017769 0
M  V30 87 H 8.490582 3.322274 -15.734867 0
M  V30 88 H 6.669403 -1.299937 -21.074476 0
M  V30 89 H 5.555654 8.484299 -17.640426 0
M  V30 90 H 4.306209 7.745220 -16.739586 0
M  V30 91 H 6.071298 -1.871620 -19.641996 0
M  V30 END ATOM
M  V30 BEGIN BOND
M  V30 1 2 2 1
M  V30 2 1 12 11
M  V30 3 1 13 1
M  V30 4 2 13 8
M  V30 5 1 16 11
M  V30 6 1 17 3
M  V30 7 2 17 5
M  V30 8 1 18 16
M  V30 9 1 19 2
M  V30 10 1 21 11
M  V30 11 1 22 13
M  V30 12 1 24 12
M  V30 13 1 24 18
M  V30 14 1 27 15
M  V30 15 1 28 4
M  V30 16 1 28 10
M  V30 17 1 28 25
M  V30 18 1 29 15
M  V30 19 1 32 23
M  V30 20 1 33 19
M  V30 21 1 34 7
M  V30 22 1 34 20
M  V30 23 1 34 27
M  V30 24 1 34 30
M  V30 25 1 35 4
M  V30 26 1 35 6
M  V30 27 1 36 4
M  V30 28 1 36 16
M  V30 29 1 37 9
M  V30 30 1 38 7
M  V30 31 1 38 20
M  V30 32 1 39 8
M  V30 33 2 39 19
M  V30 34 2 40 14
M  V30 35 1 40 18
M  V30 36 1 41 17
M  V30 37 1 41 22 CFG=3
M  V30 38 1 41 32
M  V30 39 1 42 9
M  V30 40 1 43 40
M  V30 41 1 43 42
M  V30 42 1 44 28
M  V30 43 1 44 31
M  V30 44 1 45 9
M  V30 45 1 45 41
M  V30 46 1 46 21
M  V30 47 1 46 35
M  V30 48 1 4 47 CFG=3
M  V30 49 2 48 26
M  V30 50 1 48 29
M  V30 51 1 48 31
M  V30 52 1 49 1
M  V30 53 1 50 2
M  V30 54 1 51 7
M  V30 55 1 52 7
M  V30 56 1 53 8
M  V30 57 1 9 54 CFG=1
M  V30 58 1 11 55 CFG=3
M  V30 59 1 56 12
M  V30 60 1 57 12
M  V30 61 1 58 15
M  V30 62 1 59 15
M  V30 63 1 16 60 CFG=3
M  V30 64 1 18 61 CFG=1
M  V30 65 1 62 20
M  V30 66 1 63 20
M  V30 67 1 64 21
M  V30 68 1 65 21
M  V30 69 1 66 22
M  V30 70 1 67 22
M  V30 71 1 68 23
M  V30 72 1 69 24
M  V30 73 1 70 24
M  V30 74 1 71 27
M  V30 75 1 72 27
M  V30 76 1 73 29
M  V30 77 1 74 31
M  V30 78 1 75 32
M  V30 79 1 76 32
M  V30 80 1 35 77 CFG=1
M  V30 81 1 78 37
M  V30 82 1 79 37
M  V30 83 1 80 37
M  V30 84 1 81 38
M  V30 85 1 82 38
M  V30 86 1 83 39
M  V30 87 1 84 42
M  V30 88 1 85 42
M  V30 89 1 86 44
M  V30 90 1 87 44
M  V30 91 1 88 45
M  V30 92 1 89 46
M  V30 93 1 90 46
M  V30 94 1 91 45
M  V30 END BOND
M  V30 END CTAB
M  END
>  <i_epik_Tot_Q>  (1) 
0

>  <i_epik_Tot_abs_Q>  (1) 
2

>  <i_i_glide_confnum>  (1) 
6668

>  <i_i_glide_lignum>  (1) 
185

>  <i_i_glide_posenum>  (1) 
108

>  <i_i_glide_rotatable_bonds>  (1) 
19

>  <i_lp_mmshare_version>  (1) 
72125

>  <i_m_source_file_index>  (1) 
92

>  <i_f3d_flags>  (1) 
0

>  <num_sample>  (1) 
100

>  <b_lp_Chiralities_Consistent>  (1) 
1

>  <r_epik_Charging_Adjusted_Penalty>  (1) 
0.009474757763754324

>  <r_epik_Ionization_Penalty>  (1) 
0.0047391049881846635

>  <r_epik_Ionization_Penalty_Charging>  (1) 
0.0047383734809194307

>  <r_epik_Ionization_Penalty_Neutral>  (1) 
7.3150726523264564e-07

>  <r_epik_State_Penalty>  (1) 
0.0047363842828348933

>  <r_glide_ring_energy>  (1) 
0.6799158544913404

>  <r_i_docking_score>  (1) 
-5.0043594917012202

>  <r_i_glide_ecoul>  (1) 
-4.0983607975612131

>  <r_i_glide_eff_state_penalty>  (1) 
0.0047363842828348933

>  <r_i_glide_einternal>  (1) 
13.468451006978508

>  <r_i_glide_emodel>  (1) 
-40.698805735031982

>  <r_i_glide_emodel_strain>  (1) 
2.6706241314160195

>  <r_i_glide_energy>  (1) 
-34.077817477214765

>  <r_i_glide_erotb>  (1) 
0.42390194326956793

>  <r_i_glide_esite>  (1) 
0

>  <r_i_glide_evdw>  (1) 
-29.979456679653552

>  <r_i_glide_gscore>  (1) 
-5.0090958759840554

>  <r_i_glide_gscore_strain>  (1) 
0

>  <r_i_glide_hbond>  (1) 
-0.32000000000000001

>  <r_i_glide_ligand_efficiency>  (1) 
-0.10425748941044209

>  <r_i_glide_ligand_efficiency_ln>  (1) 
-1.0273358624485323

>  <r_i_glide_ligand_efficiency_sa>  (1) 
-0.37889686192938615

>  <r_i_glide_lipo>  (1) 
-1.7608090815274107

>  <r_i_glide_metal>  (1) 
-0

>  <r_i_glide_rewards>  (1) 
-1.2384617841093526

>  <r_lp_Energy>  (1) 
54.172243999999999

>  <s_epik_Chemistry_Notes>  (1) 
This compound has an ester and may undergo hydrolysis at high or low pH.

>  <s_epik_cmdline>  (1) 
J2VwaWtfcHl0aG9uJywgJy1waHQnLCAnMS4wJywgJy1waCcsICc3LjQnLCAnLXRuJywgJzgnLCAnLW1hJywgJzUwMCcsICctaW1hZScsICc8aW5maWxlLm1hZT4nLCAnLW9tYWUnLCAnPG91dGZpbGUubWFlPic=

>  <s_epik_input>  (1) 
W2NIXTFbY0hdYyhDbClbY0hdW2NIXWMxW0NIMl1bQ0BdKEMoPU8pW09IXSkoW0NIMl1bT0hdKVtOSF1bQ0BIXShbQ0gzXSlbQ0gyXU9DKD1PKVtDQEhdKFtDSDJdW0NIMl0yKVtDQEBIXShbQ0BASF0yMylPW0NAQF0oRikoW0NAQEhdKEYpW0NIMl1bQ0gyXTMpQyhGKShGKVtDSDJdW05IXUMoPVMpW05IXVtDSDJdW0NIMl1DNChGKVtDSDJdW0NIMl1bQ0gyXTQ=

>  <s_glide_docking_method>  (1) 
confgen

>  <s_i_glide_gridfile>  (1) 
gpcr_drd2_6luq_protein_autoprepared_prepared

>  <s_lp_Force_Field>  (1) 
S-OPLS

>  <s_lp_Variant>  (1) 
DiffSBDD_91_num_sample_100-1

>  <s_m_source_file>  (1) 
generated__ligand_DiffSBDD_2026-05-06_prepared.sdf

>  <GenAI_Model>  (1) 
DiffSBDD

>  <Protein>  (1) 
generic_title2

$$$$
DiffSBDD_63_num_sample_100
     RDKit          3D

  0  0  0  0  0  0  0  0  0  0999 V3000
M  V30 BEGIN CTAB
M  V30 COUNTS 56 56 0 0 1
M  V30 BEGIN ATOM
M  V30 1 C 6.494974 4.446095 -18.339819 0
M  V30 2 C 10.247911 6.764367 -8.339514 0
M  V30 3 C 12.009546 9.085613 -9.564626 0
M  V30 4 C 8.734617 6.976000 -11.751274 0
M  V30 5 C 6.857833 3.405394 -13.039630 0
M  V30 6 C 10.469551 7.150567 -9.806043 0
M  V30 7 C 10.386890 7.923893 -7.307629 0 CFG=1
M  V30 8 C 6.258267 4.065395 -14.296712 0
M  V30 9 C 7.004809 5.279255 -14.845340 0
M  V30 10 C 6.028169 6.725083 -17.403357 0
M  V30 11 C 12.523030 8.969291 -8.154973 0
M  V30 12 C 7.090062 6.444880 -14.174069 0
M  V30 13 C 4.624581 6.719814 -16.791453 0
M  V30 14 C 8.298831 2.922344 -13.215612 0
M  V30 15 C 11.826730 7.703008 -10.179683 0
M  V30 16 N 7.419452 6.569311 -11.724817 0
M  V30 17 O 9.830947 7.562472 -6.048077 0
M  V30 18 C 7.655913 5.094550 -16.209927 0
M  V30 19 C 6.709987 5.360559 -17.380369 0
M  V30 20 C 11.804798 8.459264 -7.150011 0
M  V30 21 C 6.468992 6.706233 -12.814347 0
M  V30 22 C 10.521127 6.585346 -5.279214 0
M  V30 23 C 9.529788 7.017741 -10.712354 0
M  V30 24 H 6.986426 3.484065 -18.313274 0
M  V30 25 H 5.825373 4.648912 -19.162154 0
M  V30 26 H 9.248923 6.334950 -8.238054 0
M  V30 27 H 10.944538 5.960825 -8.104198 0
M  V30 28 H 12.634839 9.714565 -10.185581 0
M  V30 29 H 11.056463 9.612435 -9.514676 0
M  V30 30 H 9.067447 7.268501 -12.732591 0
M  V30 31 H 6.238245 2.548943 -12.771705 0
M  V30 32 H 6.804628 4.072352 -12.182863 0
M  V30 33 H 9.764546 8.750018 -7.654179 0
M  V30 34 H 6.234839 3.311499 -15.082589 0
M  V30 35 H 5.225066 4.350050 -14.099632 0
M  V30 36 H 5.965467 7.072096 -18.435374 0
M  V30 37 H 6.634927 7.456631 -16.876907 0
M  V30 38 H 13.529362 9.317983 -7.970568 0
M  V30 39 H 7.634797 7.266867 -14.612856 0
M  V30 40 H 4.241751 7.735737 -16.693161 0
M  V30 41 H 4.634852 6.268488 -15.802066 0
M  V30 42 H 3.920652 6.169283 -17.412316 0
M  V30 43 H 8.670090 2.462777 -12.299399 0
M  V30 44 H 8.967709 3.748307 -13.461200 0
M  V30 45 H 8.361194 2.177654 -14.008543 0
M  V30 46 H 11.898942 7.769301 -11.265229 0
M  V30 47 H 12.619074 7.018568 -9.883753 0
M  V30 48 H 7.019169 6.799669 -10.811054 0
M  V30 49 H 8.506059 5.769298 -16.299539 0
M  V30 50 H 8.078271 4.090821 -16.276037 0
M  V30 51 H 12.234832 8.415510 -6.164184 0
M  V30 52 H 5.628448 6.037956 -12.631329 0
M  V30 53 H 6.060809 7.716610 -12.801201 0
M  V30 54 H 9.839203 6.169331 -4.538859 0
M  V30 55 H 11.360097 7.016996 -4.734351 0
M  V30 56 H 10.894353 5.769301 -5.889855 0
M  V30 END ATOM
M  V30 BEGIN BOND
M  V30 1 1 6 2
M  V30 2 1 7 2
M  V30 3 1 8 5
M  V30 4 1 9 8
M  V30 5 1 11 3
M  V30 6 2 12 9
M  V30 7 1 13 10
M  V30 8 1 14 5
M  V30 9 1 15 3
M  V30 10 1 15 6
M  V30 11 1 16 4
M  V30 12 1 17 7
M  V30 13 1 18 9
M  V30 14 2 19 1
M  V30 15 1 19 10
M  V30 16 1 19 18
M  V30 17 1 20 7
M  V30 18 2 20 11
M  V30 19 1 21 12
M  V30 20 1 21 16
M  V30 21 1 22 17
M  V30 22 2 23 4
M  V30 23 2 23 6
M  V30 24 1 24 1
M  V30 25 1 25 1
M  V30 26 1 26 2
M  V30 27 1 27 2
M  V30 28 1 28 3
M  V30 29 1 29 3
M  V30 30 1 30 4
M  V30 31 1 31 5
M  V30 32 1 32 5
M  V30 33 1 7 33 CFG=3
M  V30 34 1 34 8
M  V30 35 1 35 8
M  V30 36 1 36 10
M  V30 37 1 37 10
M  V30 38 1 38 11
M  V30 39 1 39 12
M  V30 40 1 40 13
M  V30 41 1 41 13
M  V30 42 1 42 13
M  V30 43 1 43 14
M  V30 44 1 44 14
M  V30 45 1 45 14
M  V30 46 1 46 15
M  V30 47 1 47 15
M  V30 48 1 48 16
M  V30 49 1 49 18
M  V30 50 1 50 18
M  V30 51 1 51 20
M  V30 52 1 52 21
M  V30 53 1 53 21
M  V30 54 1 54 22
M  V30 55 1 55 22
M  V30 56 1 56 22
M  V30 END BOND
M  V30 END CTAB
M  END
>  <i_epik_Tot_Q>  (1) 
0

>  <i_epik_Tot_abs_Q>  (1) 
0

>  <i_i_glide_confnum>  (1) 
35

>  <i_i_glide_lignum>  (1) 
125

>  <i_i_glide_posenum>  (1) 
223

>  <i_i_glide_rotatable_bonds>  (1) 
9

>  <i_lp_mmshare_version>  (1) 
72125

>  <i_m_source_file_index>  (1) 
64

>  <i_f3d_flags>  (1) 
0

>  <num_sample>  (1) 
100

>  <b_lp_Chiralities_Consistent>  (1) 
1

>  <r_epik_Charging_Adjusted_Penalty>  (1) 
0

>  <r_epik_Ionization_Penalty>  (1) 
2.3151810028890752e-06

>  <r_epik_Ionization_Penalty_Charging>  (1) 
0

>  <r_epik_Ionization_Penalty_Neutral>  (1) 
2.3151810028890752e-06

>  <r_epik_State_Penalty>  (1) 
-0

>  <r_glide_ring_energy>  (1) 
0

>  <r_i_docking_score>  (1) 
-5.0031672270740071

>  <r_i_glide_ecoul>  (1) 
-2.5222963197431101

>  <r_i_glide_eff_state_penalty>  (1) 
-0

>  <r_i_glide_einternal>  (1) 
10.735469509552363

>  <r_i_glide_emodel>  (1) 
-28.11871878727376

>  <r_i_glide_emodel_strain>  (1) 
1.7472028727408677

>  <r_i_glide_energy>  (1) 
-26.517805973005579

>  <r_i_glide_erotb>  (1) 
1.3082352225513891

>  <r_i_glide_esite>  (1) 
-0.10000000000000001

>  <r_i_glide_evdw>  (1) 
-23.99550965326247

>  <r_i_glide_gscore>  (1) 
-5.0031672270740071

>  <r_i_glide_gscore_strain>  (1) 
0

>  <r_i_glide_hbond>  (1) 
-0.16

>  <r_i_glide_ligand_efficiency>  (1) 
-0.21752900987278292

>  <r_i_glide_ligand_efficiency_ln>  (1) 
-1.209811201718707

>  <r_i_glide_ligand_efficiency_sa>  (1) 
-0.6186235683370126

>  <r_i_glide_lipo>  (1) 
-2.5300138568387029

>  <r_i_glide_metal>  (1) 
-0

>  <r_i_glide_rewards>  (1) 
-1.943268662162102

>  <r_lp_Energy>  (1) 
-10.607941

>  <r_lp_tautomer_probability>  (1) 
1

>  <s_epik_cmdline>  (1) 
J2VwaWtfcHl0aG9uJywgJy1waHQnLCAnMS4wJywgJy1waCcsICc3LjQnLCAnLXRuJywgJzgnLCAnLW1hJywgJzUwMCcsICctaW1hZScsICc8aW5maWxlLm1hZT4nLCAnLW9tYWUnLCAnPG91dGZpbGUubWFlPic=

>  <s_epik_input>  (1) 
W0NIM11bQ0gyXUMoPVtDSDJdKVtDSDJdQyhcW0NIMl1bQ0gyXVtDSDNdKT1bQ0hdXFtDSDJdW05IXVtDSF09Qz1DMVtDSDJdW0NAQEhdKE9bQ0gzXSlbQ0hdPVtDSF1bQ0gyXVtDSDJdMQ==

>  <s_glide_docking_method>  (1) 
confgen

>  <s_i_glide_gridfile>  (1) 
gpcr_drd2_6luq_protein_autoprepared_prepared

>  <s_lp_Force_Field>  (1) 
S-OPLS

>  <s_lp_Variant>  (1) 
DiffSBDD_63_num_sample_100-1

>  <s_m_source_file>  (1) 
generated__ligand_DiffSBDD_2026-05-06_prepared.sdf

>  <GenAI_Model>  (1) 
DiffSBDD

>  <Protein>  (1) 
generic_title2

$$$$
DiffSBDD_61_num_sample_100
     RDKit          3D

  0  0  0  0  0  0  0  0  0  0999 V3000
M  V30 BEGIN CTAB
M  V30 COUNTS 52 54 0 0 1
M  V30 BEGIN ATOM
M  V30 1 N 10.677496 7.563047 -6.025421 0 CFG=2 CHG=1
M  V30 2 C 7.434839 3.763890 -16.204039 0
M  V30 3 C 7.548683 4.194814 -14.722644 0 CFG=1
M  V30 4 O 12.496551 9.369262 -3.374448 0
M  V30 5 C 12.485412 8.062063 -2.873189 0
M  V30 6 O 6.357597 4.846385 -14.302030 0
M  V30 7 C 9.313962 7.139655 -11.257450 0
M  V30 8 O 7.205552 0.962055 -12.693457 0
M  V30 9 C 9.347775 6.257910 -9.998532 0
M  V30 10 C 9.110731 5.324941 -13.102027 0 CFG=1
M  V30 11 C 11.253799 6.334348 -6.621230 0
M  V30 12 C 7.870430 3.026747 -13.758571 0 CFG=2
M  V30 13 C 6.706269 2.083983 -13.397195 0
M  V30 14 C 10.335856 5.793810 -7.725258 0
M  V30 15 C 8.708812 5.197793 -14.580589 0
M  V30 16 C 10.201824 6.823900 -8.853033 0 CFG=2
M  V30 17 O 7.434755 2.536822 -16.447431 0 CHG=-1
M  V30 18 C 10.505465 8.606722 -7.069078 0
M  V30 19 C 8.474642 6.552002 -12.405782 0
M  V30 20 C 9.642568 8.117914 -8.239189 0
M  V30 21 C 11.834216 9.311764 -4.577329 0
M  V30 22 C 11.434842 8.038172 -4.796593 0
M  V30 23 C 11.834836 7.212933 -3.734699 0
M  V30 24 S 8.635100 3.769343 -12.291674 0
M  V30 25 O 7.356715 4.677346 -17.056745 0
M  V30 26 H 12.974704 7.931458 -1.918769 0
M  V30 27 H 6.472243 5.101486 -13.400091 0
M  V30 28 H 10.327763 7.338796 -11.606377 0
M  V30 29 H 8.887096 8.109993 -11.003092 0
M  V30 30 H 7.900452 1.257121 -12.119566 0
M  V30 31 H 8.330927 6.071954 -9.650693 0
M  V30 32 H 9.758329 5.285920 -10.264261 0
M  V30 33 H 10.196525 5.418978 -13.057789 0
M  V30 34 H 12.234845 6.563653 -7.035809 0
M  V30 35 H 11.413940 5.577627 -5.857564 0
M  V30 36 H 8.634827 2.404847 -14.215915 0
M  V30 37 H 6.196733 1.726398 -14.291466 0
M  V30 38 H 5.966247 2.597668 -12.782997 0
M  V30 39 H 9.354002 5.552787 -7.313707 0
M  V30 40 H 10.727897 4.863420 -8.124812 0
M  V30 41 H 8.468320 6.159278 -15.036043 0
M  V30 42 H 9.575282 4.819880 -15.127607 0
M  V30 43 H 11.196918 7.028556 -9.250932 0
M  V30 44 H 11.480819 8.932109 -7.435349 0
M  V30 45 H 10.022089 9.469371 -6.623938 0
M  V30 46 H 8.342810 7.352760 -13.132884 0
M  V30 47 H 7.468797 6.319766 -12.053543 0
M  V30 48 H 9.566448 8.905495 -8.989083 0
M  V30 49 H 8.634836 7.939352 -7.873778 0
M  V30 50 H 11.749424 10.243921 -5.117437 0
M  V30 51 H 11.676717 6.151531 -3.603198 0
M  V30 52 H 9.739571 7.308401 -5.744757 0
M  V30 END ATOM
M  V30 BEGIN BOND
M  V30 1 1 3 2
M  V30 2 1 5 4
M  V30 3 1 3 6 CFG=1
M  V30 4 1 9 7
M  V30 5 1 11 1
M  V30 6 1 12 3
M  V30 7 1 13 8
M  V30 8 1 13 12
M  V30 9 1 14 11
M  V30 10 1 15 3
M  V30 11 1 15 10
M  V30 12 1 16 9
M  V30 13 1 16 14
M  V30 14 1 17 2
M  V30 15 1 18 1
M  V30 16 1 19 7
M  V30 17 1 19 10
M  V30 18 1 20 16
M  V30 19 1 20 18
M  V30 20 1 21 4
M  V30 21 1 22 1
M  V30 22 2 22 21
M  V30 23 2 23 5
M  V30 24 1 23 22
M  V30 25 1 24 10
M  V30 26 1 24 12
M  V30 27 2 25 2
M  V30 28 1 26 5
M  V30 29 1 27 6
M  V30 30 1 28 7
M  V30 31 1 29 7
M  V30 32 1 30 8
M  V30 33 1 31 9
M  V30 34 1 32 9
M  V30 35 1 10 33 CFG=3
M  V30 36 1 34 11
M  V30 37 1 35 11
M  V30 38 1 12 36 CFG=3
M  V30 39 1 37 13
M  V30 40 1 38 13
M  V30 41 1 39 14
M  V30 42 1 40 14
M  V30 43 1 41 15
M  V30 44 1 42 15
M  V30 45 1 16 43 CFG=3
M  V30 46 1 44 18
M  V30 47 1 45 18
M  V30 48 1 46 19
M  V30 49 1 47 19
M  V30 50 1 48 20
M  V30 51 1 49 20
M  V30 52 1 50 21
M  V30 53 1 51 23
M  V30 54 1 1 52 CFG=1
M  V30 END BOND
M  V30 END CTAB
M  END
>  <i_epik_Tot_Q>  (1) 
0

>  <i_epik_Tot_abs_Q>  (1) 
2

>  <i_i_glide_confnum>  (1) 
27

>  <i_i_glide_lignum>  (1) 
121

>  <i_i_glide_posenum>  (1) 
171

>  <i_i_glide_rotatable_bonds>  (1) 
9

>  <i_lp_mmshare_version>  (1) 
72125

>  <i_m_source_file_index>  (1) 
62

>  <i_f3d_flags>  (1) 
0

>  <num_sample>  (1) 
100

>  <b_lp_Chiralities_Consistent>  (1) 
1

>  <r_epik_Charging_Adjusted_Penalty>  (1) 
0.30587031255842323

>  <r_epik_Ionization_Penalty>  (1) 
0.15296771237530521

>  <r_epik_Ionization_Penalty_Charging>  (1) 
0.15296734445016963

>  <r_epik_Ionization_Penalty_Neutral>  (1) 
3.6792513557102453e-07

>  <r_epik_State_Penalty>  (1) 
0.15290296810825357

>  <r_glide_ring_energy>  (1) 
0

>  <r_i_docking_score>  (1) 
-5.000053206685795

>  <r_i_glide_ecoul>  (1) 
-1.2834044124358732

>  <r_i_glide_eff_state_penalty>  (1) 
0.15290296810825357

>  <r_i_glide_einternal>  (1) 
6.9775950992694664

>  <r_i_glide_emodel>  (1) 
-40.146706663541501

>  <r_i_glide_emodel_strain>  (1) 
1.0614117438268948

>  <r_i_glide_energy>  (1) 
-33.242570915578121

>  <r_i_glide_erotb>  (1) 
0.84742595842419921

>  <r_i_glide_esite>  (1) 
0

>  <r_i_glide_evdw>  (1) 
-31.959166503142249

>  <r_i_glide_gscore>  (1) 
-5.1529561747940482

>  <r_i_glide_gscore_strain>  (1) 
0

>  <r_i_glide_hbond>  (1) 
-0.039913769818550729

>  <r_i_glide_ligand_efficiency>  (1) 
-0.2000021282674318

>  <r_i_glide_ligand_efficiency_ln>  (1) 
-1.1851624494878321

>  <r_i_glide_ligand_efficiency_sa>  (1) 
-0.58480977073429552

>  <r_i_glide_lipo>  (1) 
-2.4310219522693135

>  <r_i_glide_metal>  (1) 
-0

>  <r_i_glide_rewards>  (1) 
-1.7389774241078899

>  <r_lp_Energy>  (1) 
9.158987999999999

>  <s_epik_cmdline>  (1) 
J2VwaWtfcHl0aG9uJywgJy1waHQnLCAnMS4wJywgJy1waCcsICc3LjQnLCAnLXRuJywgJzgnLCAnLW1hJywgJzUwMCcsICctaW1hZScsICc8aW5maWxlLm1hZT4nLCAnLW9tYWUnLCAnPG91dGZpbGUubWFlPic=

>  <s_epik_input>  (1) 
W2NIXTFbY0hdb1tjSF1jMU4yW0NIMl1bQ0gyXVtDSF0oW0NIMl1bQ0gyXTIpW0NIMl1bQ0gyXVtDSDJdW0NASF0oW0NIMl0zKVNbQ0BASF0oW0NIMl1bT0hdKVtDQF0zKFtPSF0pQyg9TylbT0hd

>  <s_glide_docking_method>  (1) 
confgen

>  <s_i_glide_gridfile>  (1) 
gpcr_drd2_6luq_protein_autoprepared_prepared

>  <s_lp_Force_Field>  (1) 
S-OPLS

>  <s_lp_Variant>  (1) 
DiffSBDD_61_num_sample_100-1

>  <s_m_source_file>  (1) 
generated__ligand_DiffSBDD_2026-05-06_prepared.sdf

>  <GenAI_Model>  (1) 
DiffSBDD

>  <Protein>  (1) 
generic_title2

$$$$
DiffSBDD_2_num_sample_100
     RDKit          3D

  0  0  0  0  0  0  0  0  0  0999 V3000
M  V30 BEGIN CTAB
M  V30 COUNTS 31 32 0 0 1
M  V30 BEGIN ATOM
M  V30 1 C 11.368929 7.285575 -4.936418 0
M  V30 2 C 7.700436 6.389634 -12.208216 0 CFG=2
M  V30 3 O 11.155283 8.969299 -7.131826 0
M  V30 4 C 8.798385 7.344412 -11.709230 0
M  V30 5 C 10.920604 6.813095 -6.219920 0
M  V30 6 O 11.834835 10.778293 -5.891668 0
M  V30 7 N 9.834869 6.627772 -10.983862 0
M  V30 8 C 12.267483 8.247219 -2.442682 0
M  V30 9 C 11.583223 9.584553 -5.957502 0
M  V30 10 C 10.402397 7.219517 -8.551000 0
M  V30 11 C 11.704800 8.642905 -4.787233 0
M  V30 12 C 10.828699 7.641350 -7.259650 0
M  V30 13 C 10.096893 6.939722 -9.699494 0
M  V30 14 O 7.102679 5.769289 -11.091662 0
M  V30 15 C 8.202580 5.315839 -13.184545 0
M  V30 16 C 12.156772 9.124761 -3.537212 0
M  V30 17 C 11.926363 6.890445 -2.593619 0
M  V30 18 C 11.475718 6.412350 -3.839713 0
M  V30 19 H 6.931383 6.982938 -12.704508 0
M  V30 20 H 9.258499 7.849860 -12.558288 0
M  V30 21 H 8.359945 8.130412 -11.091450 0
M  V30 22 H 10.665969 5.769328 -6.317375 0
M  V30 23 H 9.755286 5.642082 -11.193223 0
M  V30 24 H 12.612738 8.615961 -1.487587 0
M  V30 25 H 7.034646 6.433963 -10.402269 0
M  V30 26 H 8.664555 5.768760 -14.061827 0
M  V30 27 H 8.939741 4.658997 -12.721904 0
M  V30 28 H 7.378898 4.690611 -13.529805 0
M  V30 29 H 12.416336 10.164967 -3.418003 0
M  V30 30 H 12.009337 6.214770 -1.754529 0
M  V30 31 H 11.215702 5.371754 -3.954298 0
M  V30 END ATOM
M  V30 BEGIN BOND
M  V30 1 1 4 2
M  V30 2 1 5 1
M  V30 3 1 7 4
M  V30 4 1 9 3
M  V30 5 2 9 6
M  V30 6 1 11 1
M  V30 7 1 11 9
M  V30 8 1 12 3
M  V30 9 2 12 5
M  V30 10 1 12 10
M  V30 11 1 13 7
M  V30 12 3 13 10
M  V30 13 1 14 2
M  V30 14 1 15 2
M  V30 15 1 16 8
M  V30 16 2 16 11
M  V30 17 2 17 8
M  V30 18 2 18 1
M  V30 19 1 18 17
M  V30 20 1 2 19 CFG=3
M  V30 21 1 20 4
M  V30 22 1 21 4
M  V30 23 1 22 5
M  V30 24 1 23 7
M  V30 25 1 24 8
M  V30 26 1 25 14
M  V30 27 1 26 15
M  V30 28 1 27 15
M  V30 29 1 28 15
M  V30 30 1 29 16
M  V30 31 1 30 17
M  V30 32 1 31 18
M  V30 END BOND
M  V30 END CTAB
M  END
>  <i_epik_Tot_Q>  (1) 
0

>  <i_epik_Tot_abs_Q>  (1) 
0

>  <i_i_glide_confnum>  (1) 
8

>  <i_i_glide_lignum>  (1) 
4

>  <i_i_glide_posenum>  (1) 
140

>  <i_i_glide_rotatable_bonds>  (1) 
5

>  <i_lp_mmshare_version>  (1) 
72125

>  <i_m_source_file_index>  (1) 
3

>  <i_f3d_flags>  (1) 
0

>  <num_sample>  (1) 
100

>  <b_lp_Chiralities_Consistent>  (1) 
1

>  <r_epik_Charging_Adjusted_Penalty>  (1) 
0.030576885115692693

>  <r_epik_Ionization_Penalty>  (1) 
0.030576926290342817

>  <r_epik_Ionization_Penalty_Charging>  (1) 
0

>  <r_epik_Ionization_Penalty_Neutral>  (1) 
0.030576926290342817

>  <r_epik_State_Penalty>  (1) 
0.030576885115692693

>  <r_glide_ring_energy>  (1) 
0

>  <r_i_docking_score>  (1) 
-4.997224828940114

>  <r_i_glide_ecoul>  (1) 
-5.9845771396594927

>  <r_i_glide_eff_state_penalty>  (1) 
0.030576885115692693

>  <r_i_glide_einternal>  (1) 
0.29721398041646108

>  <r_i_glide_emodel>  (1) 
-42.689253377278206

>  <r_i_glide_emodel_strain>  (1) 
0.037292788249697395

>  <r_i_glide_energy>  (1) 
-32.693783393410627

>  <r_i_glide_erotb>  (1) 
0.8801959699319355

>  <r_i_glide_esite>  (1) 
0

>  <r_i_glide_evdw>  (1) 
-26.70920625375113

>  <r_i_glide_gscore>  (1) 
-5.0278017140558067

>  <r_i_glide_gscore_strain>  (1) 
0

>  <r_i_glide_hbond>  (1) 
-0.16

>  <r_i_glide_ligand_efficiency>  (1) 
-0.2776236016077841

>  <r_i_glide_ligand_efficiency_ln>  (1) 
-1.2845108745192293

>  <r_i_glide_ligand_efficiency_sa>  (1) 
-0.72757966474287949

>  <r_i_glide_lipo>  (1) 
-2.3643822321694419

>  <r_i_glide_metal>  (1) 
-0

>  <r_i_glide_rewards>  (1) 
-1.1504685681818185

>  <r_lp_Energy>  (1) 
10.004031999999999

>  <s_epik_cmdline>  (1) 
J2VwaWtfcHl0aG9uJywgJy1waHQnLCAnMS4wJywgJy1waCcsICc3LjQnLCAnLXRuJywgJzgnLCAnLW1hJywgJzUwMCcsICctaW1hZScsICc8aW5maWxlLm1hZT4nLCAnLW9tYWUnLCAnPG91dGZpbGUubWFlPic=

>  <s_epik_input>  (1) 
W2NIXTFbY0hdW2NIXVtjSF1jKGMxMiljKD1PKW9jKFtjSF0yKUMjQ1tOSF1bQ0gyXVtDQEhdKFtPSF0pW0NIM10=

>  <s_glide_docking_method>  (1) 
confgen

>  <s_i_glide_gridfile>  (1) 
gpcr_drd2_6luq_protein_autoprepared_prepared

>  <s_lp_Force_Field>  (1) 
S-OPLS

>  <s_lp_Variant>  (1) 
DiffSBDD_2_num_sample_100-1

>  <s_m_source_file>  (1) 
generated__ligand_DiffSBDD_2026-05-06_prepared.sdf

>  <GenAI_Model>  (1) 
DiffSBDD

>  <Protein>  (1) 
generic_title2

$$$$
DiffSBDD_21_num_sample_100
     RDKit          3D

  0  0  0  0  0  0  0  0  0  0999 V3000
M  V30 BEGIN CTAB
M  V30 COUNTS 68 72 0 0 1
M  V30 BEGIN ATOM
M  V30 1 C 8.270111 2.892992 -20.871135 0
M  V30 2 C 7.230378 2.055278 -16.273267 0
M  V30 3 C 10.856947 7.588665 -9.372162 0
M  V30 4 C 9.679624 0.244257 -18.924369 0 CFG=2
M  V30 5 C 7.934536 5.769333 -11.117537 0
M  V30 6 C 7.859327 3.337728 -14.276910 0
M  V30 7 C 8.479921 -0.616042 -18.417837 0
M  V30 8 O 5.687490 0.169136 -16.207412 0
M  V30 9 C 9.244416 6.099976 -8.305781 0
M  V30 10 C 9.959888 -0.177523 -20.383870 0
M  V30 11 C 7.434866 3.220256 -17.074250 0
M  V30 12 O 8.066983 3.389998 -12.916131 0
M  V30 13 C 7.906864 -0.332389 -17.006287 0
M  V30 14 F 11.442456 8.089097 -10.483945 0
M  V30 15 C 9.269624 4.004514 -12.450306 0
M  V30 16 C 11.912490 2.395905 -18.365403 0
M  V30 17 C 8.053113 4.485199 -15.076713 0
M  V30 18 C 10.669531 7.531693 -6.941633 0
M  V30 19 F 11.693699 2.718008 -17.092142 0
M  V30 20 S 11.110148 -0.215490 -17.891785 0
M  V30 21 C 7.199714 3.189530 -18.587293 0
M  V30 22 C 7.844812 4.424635 -16.465209 0
M  V30 23 O 7.267809 1.023267 -14.083538 0
M  V30 24 C 6.775047 0.730250 -16.913515 0 CFG=2
M  V30 25 F 11.065122 7.974303 -5.724189 0
M  V30 26 C 11.269530 8.042726 -8.104536 0
M  V30 27 C 12.384765 0.941829 -18.459457 0
M  V30 28 F 12.886392 3.181337 -18.824907 0
M  V30 29 C 10.647726 2.666846 -19.191464 0
M  V30 30 C 9.659855 6.562380 -7.041510 0
M  V30 31 C 9.378446 6.135102 -10.850613 0 CFG=1
M  V30 32 C 9.434832 1.783210 -18.801188 0 CFG=1
M  V30 33 C 8.101735 2.278420 -19.465644 0 CFG=2
M  V30 34 C 9.835099 6.613151 -9.486508 0
M  V30 35 C 8.989894 4.695383 -11.135762 0 CFG=1
M  V30 36 C 7.448619 2.127244 -14.869700 0
M  V30 37 H 8.783378 3.854130 -20.840109 0
M  V30 38 H 8.829241 2.238187 -21.537884 0
M  V30 39 H 7.297598 3.064828 -21.333612 0
M  V30 40 H 7.511291 6.072645 -12.072893 0
M  V30 41 H 7.232827 5.767781 -10.287556 0
M  V30 42 H 8.821315 -1.652387 -18.411432 0
M  V30 43 H 7.661824 -0.633643 -19.137756 0
M  V30 44 H 5.964095 0.079014 -15.302875 0
M  V30 45 H 8.463975 5.356390 -8.372112 0
M  V30 46 H 9.089546 -0.019268 -21.019919 0
M  V30 47 H 10.791819 0.363774 -20.830395 0
M  V30 48 H 10.203523 -1.237838 -20.444543 0
M  V30 49 H 8.694029 -0.140015 -16.279008 0
M  V30 50 H 7.484920 -1.288293 -16.691723 0
M  V30 51 H 10.014629 3.227141 -12.293016 0
M  V30 52 H 9.717974 4.718651 -13.138732 0
M  V30 53 H 8.360564 5.415115 -14.623873 0
M  V30 54 H 6.149163 2.964804 -18.777512 0
M  V30 55 H 7.316442 4.215941 -18.937494 0
M  V30 56 H 7.996266 5.308725 -17.067617 0
M  V30 57 H 7.488988 1.214442 -13.182424 0
M  V30 58 H 6.341307 0.890837 -17.895294 0
M  V30 59 H 12.047577 8.787780 -8.027169 0
M  V30 60 H 13.279212 0.795294 -17.853199 0
M  V30 61 H 12.658643 0.697005 -19.485200 0
M  V30 62 H 10.379800 3.715946 -19.059044 0
M  V30 63 H 10.884177 2.552842 -20.248616 0
M  V30 64 H 9.199326 6.171670 -6.146539 0
M  V30 65 H 9.895917 6.665115 -11.647313 0
M  V30 66 H 9.375743 1.921066 -17.728579 0
M  V30 67 H 7.491081 1.404738 -19.662973 0
M  V30 68 H 8.980233 4.016319 -10.291762 0
M  V30 END ATOM
M  V30 BEGIN BOND
M  V30 1 1 7 4
M  V30 2 1 4 10 CFG=3
M  V30 3 2 11 2
M  V30 4 1 12 6
M  V30 5 1 13 7
M  V30 6 1 14 3
M  V30 7 1 15 12
M  V30 8 1 17 6
M  V30 9 1 19 16
M  V30 10 1 20 4
M  V30 11 1 21 11
M  V30 12 1 22 11
M  V30 13 2 22 17
M  V30 14 1 24 2
M  V30 15 1 24 8
M  V30 16 1 24 13
M  V30 17 1 25 18
M  V30 18 1 26 3
M  V30 19 2 26 18
M  V30 20 1 27 16
M  V30 21 1 27 20
M  V30 22 1 28 16
M  V30 23 1 29 16
M  V30 24 2 30 9
M  V30 25 1 30 18
M  V30 26 1 31 5
M  V30 27 1 32 4
M  V30 28 1 32 29
M  V30 29 1 33 1
M  V30 30 1 33 21
M  V30 31 1 33 32
M  V30 32 2 34 3
M  V30 33 1 34 9
M  V30 34 1 34 31
M  V30 35 1 35 5
M  V30 36 1 35 15
M  V30 37 1 35 31
M  V30 38 1 36 2
M  V30 39 2 36 6
M  V30 40 1 36 23
M  V30 41 1 37 1
M  V30 42 1 38 1
M  V30 43 1 39 1
M  V30 44 1 40 5
M  V30 45 1 41 5
M  V30 46 1 42 7
M  V30 47 1 43 7
M  V30 48 1 44 8
M  V30 49 1 45 9
M  V30 50 1 46 10
M  V30 51 1 47 10
M  V30 52 1 48 10
M  V30 53 1 49 13
M  V30 54 1 50 13
M  V30 55 1 51 15
M  V30 56 1 52 15
M  V30 57 1 53 17
M  V30 58 1 54 21
M  V30 59 1 55 21
M  V30 60 1 56 22
M  V30 61 1 57 23
M  V30 62 1 24 58 CFG=3
M  V30 63 1 59 26
M  V30 64 1 60 27
M  V30 65 1 61 27
M  V30 66 1 62 29
M  V30 67 1 63 29
M  V30 68 1 64 30
M  V30 69 1 31 65 CFG=3
M  V30 70 1 32 66 CFG=1
M  V30 71 1 33 67 CFG=3
M  V30 72 1 35 68 CFG=1
M  V30 END BOND
M  V30 END CTAB
M  END
>  <i_epik_Tot_Q>  (1) 
0

>  <i_epik_Tot_abs_Q>  (1) 
0

>  <i_i_glide_confnum>  (1) 
68

>  <i_i_glide_lignum>  (1) 
33

>  <i_i_glide_posenum>  (1) 
259

>  <i_i_glide_rotatable_bonds>  (1) 
6

>  <i_lp_mmshare_version>  (1) 
72125

>  <i_m_source_file_index>  (1) 
22

>  <i_f3d_flags>  (1) 
0

>  <num_sample>  (1) 
100

>  <b_lp_Chiralities_Consistent>  (1) 
1

>  <r_epik_Charging_Adjusted_Penalty>  (1) 
0

>  <r_epik_Ionization_Penalty>  (1) 
0.0009051571753108589

>  <r_epik_Ionization_Penalty_Charging>  (1) 
0

>  <r_epik_Ionization_Penalty_Neutral>  (1) 
0.0009051571753108589

>  <r_epik_State_Penalty>  (1) 
-0

>  <r_glide_ring_energy>  (1) 
0

>  <r_i_docking_score>  (1) 
-4.9967990922683008

>  <r_i_glide_ecoul>  (1) 
-1.8941370495876191

>  <r_i_glide_eff_state_penalty>  (1) 
-0

>  <r_i_glide_einternal>  (1) 
5.633997475929668

>  <r_i_glide_emodel>  (1) 
-47.917248613466604

>  <r_i_glide_emodel_strain>  (1) 
0.0089805010617354242

>  <r_i_glide_energy>  (1) 
-40.113129016646262

>  <r_i_glide_erotb>  (1) 
0.29906164395455315

>  <r_i_glide_esite>  (1) 
0

>  <r_i_glide_evdw>  (1) 
-38.218991967058642

>  <r_i_glide_gscore>  (1) 
-4.9967990922683008

>  <r_i_glide_gscore_strain>  (1) 
0

>  <r_i_glide_hbond>  (1) 
0

>  <r_i_glide_ligand_efficiency>  (1) 
-0.13879997478523057

>  <r_i_glide_ligand_efficiency_ln>  (1) 
-1.0901665640224012

>  <r_i_glide_ligand_efficiency_sa>  (1) 
-0.45830741888924004

>  <r_i_glide_lipo>  (1) 
-1.8662474681545722

>  <r_i_glide_metal>  (1) 
-0

>  <r_i_glide_rewards>  (1) 
-1.2345431122772077

>  <r_lp_Energy>  (1) 
62.008314999999996

>  <r_lp_tautomer_probability>  (1) 
1

>  <s_epik_cmdline>  (1) 
J2VwaWtfcHl0aG9uJywgJy1waHQnLCAnMS4wJywgJy1waCcsICc3LjQnLCAnLXRuJywgJzgnLCAnLW1hJywgJzUwMCcsICctaW1hZScsICc8aW5maWxlLm1hZT4nLCAnLW9tYWUnLCAnPG91dGZpbGUubWFlPic=

>  <s_epik_input>  (1) 
UzFbQ0gyXUMoRikoRilbQ0gyXVtDQEhdKFtDQEBdMTJbQ0gzXSlbQ0BIXShbQ0gzXSlbQ0gyXWMzYyhbQ0BIXShbT0hdKVtDSDJdW0NIMl0yKWMoW09IXSljKFtjSF1bY0hdMylPW0NIMl1bQ0BASF00W0NIMl1bQ0hdNGM1W2NIXVtjSF1jKEYpW2NIXWM1Rg==

>  <s_glide_docking_method>  (1) 
confgen

>  <s_i_glide_gridfile>  (1) 
gpcr_drd2_6luq_protein_autoprepared_prepared

>  <s_lp_Force_Field>  (1) 
S-OPLS

>  <s_lp_Variant>  (1) 
DiffSBDD_21_num_sample_100-1

>  <s_m_source_file>  (1) 
generated__ligand_DiffSBDD_2026-05-06_prepared.sdf

>  <GenAI_Model>  (1) 
DiffSBDD

>  <Protein>  (1) 
generic_title2

$$$$
DiffSBDD_14_num_sample_100
     RDKit          3D

  0  0  0  0  0  0  0  0  0  0999 V3000
M  V30 BEGIN CTAB
M  V30 COUNTS 60 64 0 0 1
M  V30 BEGIN ATOM
M  V30 1 C 7.574688 6.480413 -14.848638 0 CFG=1
M  V30 2 O 10.234855 8.969309 -5.920618 0 CHG=-1
M  V30 3 C 8.702811 4.573564 -19.120743 0
M  V30 4 C 8.295670 4.593936 -10.442573 0 CFG=2
M  V30 5 C 9.157207 6.187865 -7.999873 0 CFG=1
M  V30 6 C 9.162490 5.883561 -10.547904 0
M  V30 7 S 5.836450 6.703759 -14.407227 0
M  V30 8 S 11.035047 7.566153 -9.200517 0
M  V30 9 O 12.306515 9.369317 -6.621085 0
M  V30 10 C 8.561911 4.400202 -13.908550 0 CFG=2
M  V30 11 C 8.234851 4.969301 -7.898237 0
M  V30 12 C 7.949164 3.493205 -12.826778 0 CFG=2
M  V30 13 C 6.955785 5.715819 -17.268631 0 CFG=1
M  V30 14 C 6.962764 2.603239 -13.604644 0
M  V30 15 C 7.322690 4.217796 -11.609625 0
M  V30 16 C 8.437967 5.913781 -13.724110 0
M  V30 17 C 10.204884 6.336953 -6.892235 0
M  V30 18 C 5.330652 7.304081 -16.039778 0
M  V30 19 C 5.496313 6.184269 -17.070605 0
M  V30 20 C 6.648319 3.337432 -14.906390 0
M  V30 21 C 9.983836 6.104423 -9.258058 0 CFG=1
M  V30 22 C 7.801294 5.480070 -15.982208 0 CFG=2
M  V30 23 C 11.261216 8.686103 -6.574249 0
M  V30 24 C 11.246790 7.383550 -7.390653 0 CFG=2
M  V30 25 C 7.920534 4.096734 -15.276010 0 CFG=1
M  V30 26 C 7.435296 4.715802 -9.185531 0
M  V30 27 S 7.045873 4.318866 -18.428201 0
M  V30 28 H 7.834845 7.500554 -15.089283 0
M  V30 29 H 8.928186 3.799788 -19.854740 0
M  V30 30 H 9.459124 4.533807 -18.337200 0
M  V30 31 H 8.763807 5.542403 -19.617523 0
M  V30 32 H 8.995660 3.769292 -10.312804 0
M  V30 33 H 8.590275 7.110445 -8.019346 0
M  V30 34 H 9.848525 5.810878 -11.390843 0
M  V30 35 H 8.531548 6.757301 -10.704722 0
M  V30 36 H 9.625958 4.169294 -13.958647 0
M  V30 37 H 8.831024 4.084198 -7.694139 0
M  V30 38 H 7.528950 5.107819 -7.084283 0
M  V30 39 H 8.725636 2.831453 -12.437675 0
M  V30 40 H 7.432751 6.549491 -17.786132 0
M  V30 41 H 7.448323 1.656216 -13.845098 0
M  V30 42 H 6.056740 2.358256 -13.049616 0
M  V30 43 H 6.589452 3.518257 -11.211514 0
M  V30 44 H 6.685335 5.053238 -11.895426 0
M  V30 45 H 9.485469 6.169305 -13.804054 0
M  V30 46 H 8.097444 6.311000 -12.781196 0
M  V30 47 H 9.738303 6.576423 -5.935985 0
M  V30 48 H 10.710229 5.377535 -6.751854 0
M  V30 49 H 4.294944 7.638681 -16.003939 0
M  V30 50 H 5.925275 8.175463 -16.313977 0
M  V30 51 H 4.857623 5.369329 -16.768366 0
M  V30 52 H 5.101270 6.519585 -18.030178 0
M  V30 53 H 6.355304 2.641437 -15.692040 0
M  V30 54 H 5.834857 4.027147 -14.712193 0
M  V30 55 H 10.633082 5.255453 -9.091646 0
M  V30 56 H 8.824098 5.673311 -16.311524 0
M  V30 57 H 12.234512 6.946851 -7.245994 0
M  V30 58 H 8.567069 3.428032 -15.847731 0
M  V30 59 H 6.726247 5.526126 -9.359641 0
M  V30 60 H 6.859990 3.795828 -9.071203 0
M  V30 END ATOM
M  V30 BEGIN BOND
M  V30 1 1 6 4
M  V30 2 1 7 1
M  V30 3 1 11 5
M  V30 4 1 12 10
M  V30 5 1 14 12
M  V30 6 1 15 4
M  V30 7 1 15 12
M  V30 8 1 16 1
M  V30 9 1 16 10
M  V30 10 1 17 5
M  V30 11 1 18 7
M  V30 12 1 19 13
M  V30 13 1 19 18
M  V30 14 1 20 14
M  V30 15 1 21 5
M  V30 16 1 21 6
M  V30 17 1 21 8
M  V30 18 1 22 1
M  V30 19 1 22 13
M  V30 20 1 23 2
M  V30 21 2 23 9
M  V30 22 1 24 8
M  V30 23 1 24 17
M  V30 24 1 24 23
M  V30 25 1 25 10
M  V30 26 1 25 20
M  V30 27 1 25 22
M  V30 28 1 26 4
M  V30 29 1 26 11
M  V30 30 1 27 3
M  V30 31 1 27 13
M  V30 32 1 1 28 CFG=3
M  V30 33 1 29 3
M  V30 34 1 30 3
M  V30 35 1 31 3
M  V30 36 1 4 32 CFG=1
M  V30 37 1 5 33 CFG=3
M  V30 38 1 34 6
M  V30 39 1 35 6
M  V30 40 1 10 36 CFG=3
M  V30 41 1 37 11
M  V30 42 1 38 11
M  V30 43 1 12 39 CFG=1
M  V30 44 1 13 40 CFG=3
M  V30 45 1 41 14
M  V30 46 1 42 14
M  V30 47 1 43 15
M  V30 48 1 44 15
M  V30 49 1 45 16
M  V30 50 1 46 16
M  V30 51 1 47 17
M  V30 52 1 48 17
M  V30 53 1 49 18
M  V30 54 1 50 18
M  V30 55 1 51 19
M  V30 56 1 52 19
M  V30 57 1 53 20
M  V30 58 1 54 20
M  V30 59 1 21 55 CFG=1
M  V30 60 1 22 56 CFG=3
M  V30 61 1 24 57 CFG=3
M  V30 62 1 25 58 CFG=3
M  V30 63 1 59 26
M  V30 64 1 60 26
M  V30 END BOND
M  V30 END CTAB
M  END
>  <i_epik_Tot_Q>  (1) 
-1

>  <i_epik_Tot_abs_Q>  (1) 
1

>  <i_i_glide_confnum>  (1) 
8

>  <i_i_glide_lignum>  (1) 
23

>  <i_i_glide_posenum>  (1) 
121

>  <i_i_glide_rotatable_bonds>  (1) 
4

>  <i_lp_mmshare_version>  (1) 
72125

>  <i_m_source_file_index>  (1) 
15

>  <i_f3d_flags>  (1) 
0

>  <num_sample>  (1) 
100

>  <b_lp_Chiralities_Consistent>  (1) 
1

>  <r_epik_Charging_Adjusted_Penalty>  (1) 
0.00032590960807401398

>  <r_epik_Ionization_Penalty>  (1) 
0.00032590960807401398

>  <r_epik_Ionization_Penalty_Charging>  (1) 
0.00032590960807401398

>  <r_epik_Ionization_Penalty_Neutral>  (1) 
0

>  <r_epik_State_Penalty>  (1) 
-0

>  <r_glide_ring_energy>  (1) 
0

>  <r_i_docking_score>  (1) 
-4.9945907478766305

>  <r_i_glide_ecoul>  (1) 
-2.060967509644128

>  <r_i_glide_eff_state_penalty>  (1) 
-0

>  <r_i_glide_einternal>  (1) 
2.4597395997074063

>  <r_i_glide_emodel>  (1) 
-26.472681011993124

>  <r_i_glide_emodel_strain>  (1) 
0.38537530985425406

>  <r_i_glide_energy>  (1) 
-21.523784388934622

>  <r_i_glide_erotb>  (1) 
0.21895561960484411

>  <r_i_glide_esite>  (1) 
0

>  <r_i_glide_evdw>  (1) 
-19.462816879290493

>  <r_i_glide_gscore>  (1) 
-4.9945907478766305

>  <r_i_glide_gscore_strain>  (1) 
0

>  <r_i_glide_hbond>  (1) 
0

>  <r_i_glide_ligand_efficiency>  (1) 
-0.18498484251394928

>  <r_i_glide_ligand_efficiency_ln>  (1) 
-1.1626583838418032

>  <r_i_glide_ligand_efficiency_sa>  (1) 
-0.55495452754184793

>  <r_i_glide_lipo>  (1) 
-2.1559361356092892

>  <r_i_glide_metal>  (1) 
-0

>  <r_i_glide_rewards>  (1) 
-1.7753242614610412

>  <r_lp_Energy>  (1) 
33.503946999999997

>  <r_lp_tautomer_probability>  (1) 
1

>  <s_epik_cmdline>  (1) 
J2VwaWtfcHl0aG9uJywgJy1waHQnLCAnMS4wJywgJy1waCcsICc3LjQnLCAnLXRuJywgJzgnLCAnLW1hJywgJzUwMCcsICctaW1hZScsICc8aW5maWxlLm1hZT4nLCAnLW9tYWUnLCAnPG91dGZpbGUubWFlPic=

>  <s_epik_input>  (1) 
UzFbQ0gyXVtDSDJdW0NASF0oU1tDSDNdKVtDQEBIXShbQ0BASF0xMilbQ0BIXTNbQ0BASF0oW0NIMl0yKVtDQEhdKFtDSDJdW0NIMl0zKVtDSDJdW0NASF0oW0NIMl1bQ0gyXTQpW0NIMl1bQ0BIXShbQ0BASF00NSlTW0NASF0oW0NIMl01KUMoPU8pW09IXQ==

>  <s_glide_docking_method>  (1) 
confgen

>  <s_i_glide_gridfile>  (1) 
gpcr_drd2_6luq_protein_autoprepared_prepared

>  <s_lp_Force_Field>  (1) 
S-OPLS

>  <s_lp_Variant>  (1) 
DiffSBDD_14_num_sample_100-1

>  <s_m_source_file>  (1) 
generated__ligand_DiffSBDD_2026-05-06_prepared.sdf

>  <GenAI_Model>  (1) 
DiffSBDD

>  <Protein>  (1) 
generic_title2

$$$$
DiffSBDD_75_num_sample_100
     RDKit          3D

  0  0  0  0  0  0  0  0  0  0999 V3000
M  V30 BEGIN CTAB
M  V30 COUNTS 76 81 0 0 1
M  V30 BEGIN ATOM
M  V30 1 C 7.295265 3.141760 -13.636103 0
M  V30 2 C 7.504784 3.450773 -15.111403 0
M  V30 3 C 11.657535 4.624090 -17.148826 0
M  V30 4 C 15.397730 1.996915 -19.145882 0 CFG=2
M  V30 5 F 5.613738 7.090252 -18.779266 0
M  V30 6 C 6.321849 4.041743 -12.866166 0
M  V30 7 C 6.543458 5.778097 -14.688346 0 CFG=1
M  V30 8 N 7.919098 5.196996 -16.789224 0
M  V30 9 O 14.607161 7.439067 -18.004680 0 CHG=-1
M  V30 10 C 6.555380 5.558776 -13.133303 0 CFG=2
M  V30 11 C 10.253376 7.157712 -11.102639 0 CFG=1
M  V30 12 N 14.854632 6.289196 -18.355322 0 CHG=1
M  V30 13 C 13.050671 1.493065 -18.487923 0
M  V30 14 O 15.891831 5.943432 -18.913290 0
M  V30 15 C 6.458710 7.256295 -15.128315 0
M  V30 16 C 13.814884 5.249560 -18.072560 0
M  V30 17 C 9.047939 6.510077 -10.451524 0 CFG=1
M  V30 18 C 14.128499 1.235006 -19.535667 0
M  V30 19 C 8.890953 7.810801 -11.182494 0 CFG=2
M  V30 20 C 9.166482 5.213196 -17.350258 0
M  V30 21 N 15.157298 3.435664 -19.105871 0
M  V30 22 C 5.776735 7.510708 -16.493125 0
M  V30 23 N 7.787583 6.093690 -12.451043 0 CFG=2 CHG=1
M  V30 24 C 8.127206 5.514244 -11.123150 0
M  V30 25 C 11.394060 7.739957 -10.292157 0
M  V30 26 O 7.876694 2.210718 -13.091454 0
M  V30 27 C 6.725175 5.416551 -17.616972 0
M  V30 28 O 10.660213 6.563199 -12.319290 0
M  V30 29 C 6.439021 6.900847 -17.749738 0 CFG=1
M  V30 30 O 9.347631 5.413070 -18.552040 0
M  V30 31 O 17.022641 0.364018 -19.891679 0
M  V30 32 C 7.879350 7.570484 -12.280527 0
M  V30 33 C 12.942451 2.963523 -18.122485 0
M  V30 34 C 12.621749 5.613627 -17.415412 0
M  V30 35 N 11.803686 3.325166 -17.491676 0
M  V30 36 C 10.374828 4.979408 -16.418077 0
M  V30 37 C 16.572951 1.687054 -20.089970 0
M  V30 38 C 13.988522 3.875991 -18.441029 0
M  V30 39 C 7.699281 4.961328 -15.344480 0 CFG=2
M  V30 40 H 6.635303 3.090164 -15.660803 0
M  V30 41 H 8.359991 2.882527 -15.476721 0
M  V30 42 H 15.687033 1.696734 -18.137820 0
M  V30 43 H 5.317551 3.774671 -13.195997 0
M  V30 44 H 6.353151 3.798445 -11.804659 0
M  V30 45 H 5.599663 5.340927 -15.016576 0
M  V30 46 H 5.699452 6.078003 -12.698752 0
M  V30 47 H 13.281519 0.939538 -17.577131 0
M  V30 48 H 12.086888 1.128455 -18.844702 0
M  V30 49 H 7.434836 7.728021 -15.091805 0
M  V30 50 H 5.851183 7.769285 -14.385208 0
M  V30 51 H 9.015400 6.525106 -9.363423 0
M  V30 52 H 13.785156 1.573853 -20.514344 0
M  V30 53 H 14.316604 0.163776 -19.619439 0
M  V30 54 H 8.749043 8.723359 -10.606235 0
M  V30 55 H 15.940525 4.070647 -19.212979 0
M  V30 56 H 5.689761 8.587373 -16.641320 0
M  V30 57 H 4.750639 7.145219 -16.433549 0
M  V30 58 H 7.230367 5.415614 -10.508358 0
M  V30 59 H 8.610044 4.539711 -11.206009 0
M  V30 60 H 11.026585 8.514520 -9.618180 0
M  V30 61 H 11.867360 6.969307 -9.687973 0
M  V30 62 H 12.154692 8.169350 -10.941766 0
M  V30 63 H 6.855916 4.962200 -18.601354 0
M  V30 64 H 5.835004 4.969305 -17.205425 0
M  V30 65 H 11.252041 5.845599 -12.142449 0
M  V30 66 H 7.374510 7.369301 -18.029646 0
M  V30 67 H 17.725429 0.190859 -20.498816 0
M  V30 68 H 8.211376 8.090618 -13.172680 0
M  V30 69 H 6.919382 7.982123 -11.964068 0
M  V30 70 H 12.450884 6.637135 -17.114690 0
M  V30 71 H 10.182442 4.169301 -15.723272 0
M  V30 72 H 10.548734 5.876470 -15.826731 0
M  V30 73 H 17.410875 2.357147 -19.892367 0
M  V30 74 H 16.285517 1.828486 -21.133152 0
M  V30 75 H 8.578281 5.286239 -14.793531 0
M  V30 76 H 8.587441 5.856114 -13.021840 0
M  V30 END ATOM
M  V30 BEGIN BOND
M  V30 1 1 2 1
M  V30 2 1 6 1
M  V30 3 1 10 6
M  V30 4 1 10 7
M  V30 5 1 12 9
M  V30 6 2 14 12
M  V30 7 1 15 7
M  V30 8 1 16 12
M  V30 9 1 17 11
M  V30 10 1 18 4
M  V30 11 1 18 13
M  V30 12 1 19 11
M  V30 13 1 19 17
M  V30 14 1 20 8
M  V30 15 1 21 4
M  V30 16 1 22 15
M  V30 17 1 23 10
M  V30 18 1 24 17
M  V30 19 1 24 23
M  V30 20 1 25 11
M  V30 21 2 26 1
M  V30 22 1 27 8
M  V30 23 1 11 28 CFG=3
M  V30 24 1 29 5
M  V30 25 1 29 22
M  V30 26 1 29 27
M  V30 27 2 30 20
M  V30 28 1 32 19
M  V30 29 1 32 23
M  V30 30 1 33 13
M  V30 31 2 34 3
M  V30 32 1 34 16
M  V30 33 1 35 3
M  V30 34 2 35 33
M  V30 35 1 36 3
M  V30 36 1 36 20
M  V30 37 1 37 4
M  V30 38 1 37 31
M  V30 39 2 38 16
M  V30 40 1 38 21
M  V30 41 1 38 33
M  V30 42 1 39 2
M  V30 43 1 39 7
M  V30 44 1 39 8
M  V30 45 1 40 2
M  V30 46 1 41 2
M  V30 47 1 4 42 CFG=1
M  V30 48 1 43 6
M  V30 49 1 44 6
M  V30 50 1 7 45 CFG=3
M  V30 51 1 10 46 CFG=1
M  V30 52 1 47 13
M  V30 53 1 48 13
M  V30 54 1 49 15
M  V30 55 1 50 15
M  V30 56 1 17 51 CFG=1
M  V30 57 1 52 18
M  V30 58 1 53 18
M  V30 59 1 19 54 CFG=1
M  V30 60 1 55 21
M  V30 61 1 56 22
M  V30 62 1 57 22
M  V30 63 1 58 24
M  V30 64 1 59 24
M  V30 65 1 60 25
M  V30 66 1 61 25
M  V30 67 1 62 25
M  V30 68 1 63 27
M  V30 69 1 64 27
M  V30 70 1 65 28
M  V30 71 1 29 66 CFG=3
M  V30 72 1 67 31
M  V30 73 1 68 32
M  V30 74 1 69 32
M  V30 75 1 70 34
M  V30 76 1 71 36
M  V30 77 1 72 36
M  V30 78 1 73 37
M  V30 79 1 74 37
M  V30 80 1 39 75 CFG=1
M  V30 81 1 23 76 CFG=3
M  V30 END BOND
M  V30 END CTAB
M  END
>  <i_epik_Tot_Q>  (1) 
1

>  <i_epik_Tot_abs_Q>  (1) 
3

>  <i_i_glide_confnum>  (1) 
137

>  <i_i_glide_lignum>  (1) 
150

>  <i_i_glide_posenum>  (1) 
11

>  <i_i_glide_rotatable_bonds>  (1) 
8

>  <i_lp_mmshare_version>  (1) 
72125

>  <i_m_source_file_index>  (1) 
76

>  <i_f3d_flags>  (1) 
0

>  <num_sample>  (1) 
100

>  <b_lp_Chiralities_Consistent>  (1) 
1

>  <r_epik_Charging_Adjusted_Penalty>  (1) 
0.015891369841317948

>  <r_epik_Ionization_Penalty>  (1) 
0.0079711574059170582

>  <r_epik_Ionization_Penalty_Charging>  (1) 
0.0079456849206589655

>  <r_epik_Ionization_Penalty_Neutral>  (1) 
2.5472485258093083e-05

>  <r_epik_State_Penalty>  (1) 
0.0079456849206589828

>  <r_glide_ring_energy>  (1) 
0

>  <r_i_docking_score>  (1) 
-4.9939986741184077

>  <r_i_glide_ecoul>  (1) 
-1.4279284485947907

>  <r_i_glide_eff_state_penalty>  (1) 
0.0079456849206589828

>  <r_i_glide_einternal>  (1) 
2.9162501866004007

>  <r_i_glide_emodel>  (1) 
-49.550074306859045

>  <r_i_glide_emodel_strain>  (1) 
0.39982729005396322

>  <r_i_glide_energy>  (1) 
-38.440262667943912

>  <r_i_glide_erotb>  (1) 
0.34657339541443727

>  <r_i_glide_esite>  (1) 
-0.029639830357302138

>  <r_i_glide_evdw>  (1) 
-37.012334219349121

>  <r_i_glide_gscore>  (1) 
-5.0019443590390669

>  <r_i_glide_gscore_strain>  (1) 
0

>  <r_i_glide_hbond>  (1) 
0

>  <r_i_glide_ligand_efficiency>  (1) 
-0.12805124805431814

>  <r_i_glide_ligand_efficiency_ln>  (1) 
-1.0708550788136351

>  <r_i_glide_ligand_efficiency_sa>  (1) 
-0.43424885769404931

>  <r_i_glide_lipo>  (1) 
-2.0293642439135793

>  <r_i_glide_metal>  (1) 
-0

>  <r_i_glide_rewards>  (1) 
-1.2247077019259485

>  <r_lp_Energy>  (1) 
47.04589

>  <r_lp_tautomer_probability>  (1) 
0.99999997999999912

>  <s_epik_cmdline>  (1) 
J2VwaWtfcHl0aG9uJywgJy1waHQnLCAnMS4wJywgJy1waCcsICc3LjQnLCAnLXRuJywgJzgnLCAnLW1hJywgJzUwMCcsICctaW1hZScsICc8aW5maWxlLm1hZT4nLCAnLW9tYWUnLCAnPG91dGZpbGUubWFlPic=

>  <s_epik_input>  (1) 
W0NIM11bQ0BdMShbT0hdKVtDQEhdKFtDQEhdMTIpW0NIMl1OKFtDSDJdMilbQ0BASF0zW0NIMl1DKD1PKVtDSDJdW0NASF0oW0NAQEhdMzQpTihbQ0gyXVtDQEBIXShGKVtDSDJdW0NIMl00KUMoPU8pW0NIMl1jKG41KVtjSF1jKFtOK10oW08tXSk9TyljKGM1NilbTkhdW0NAQEhdKFtDSDJdW0NIMl02KVtDSDJdW09IXQ==

>  <s_glide_docking_method>  (1) 
confgen

>  <s_i_glide_gridfile>  (1) 
gpcr_drd2_6luq_protein_autoprepared_prepared

>  <s_lp_Force_Field>  (1) 
S-OPLS

>  <s_lp_Variant>  (1) 
DiffSBDD_75_num_sample_100-1

>  <s_m_source_file>  (1) 
generated__ligand_DiffSBDD_2026-05-06_prepared.sdf

>  <GenAI_Model>  (1) 
DiffSBDD

>  <Protein>  (1) 
generic_title2

$$$$
DiffSBDD_43_num_sample_100
     RDKit          3D

  0  0  0  0  0  0  0  0  0  0999 V3000
M  V30 BEGIN CTAB
M  V30 COUNTS 37 39 0 0 1
M  V30 BEGIN ATOM
M  V30 1 C 11.844247 8.688814 -4.827865 0
M  V30 2 N 8.170825 5.738605 -11.785992 0
M  V30 3 C 8.699410 5.337555 -9.459965 0
M  V30 4 C 10.966193 8.253135 -9.832191 0
M  V30 5 N 9.266600 6.567397 -11.458471 0
M  V30 6 C 11.421586 6.537544 -3.677810 0
M  V30 7 C 8.153053 5.255419 -13.170265 0
M  V30 8 C 10.986736 7.940919 -7.021461 0
M  V30 9 C 12.153587 7.889941 -3.555094 0
M  V30 10 F 9.034793 3.769165 -11.101537 0
M  V30 11 C 10.249361 7.035799 -7.837786 0
M  V30 12 C 8.150905 4.694328 -10.742582 0 CFG=2
M  V30 13 N 10.984204 7.804472 -5.600335 0
M  V30 14 N 9.482645 6.362717 -10.099883 0
M  V30 15 C 10.232860 7.207890 -9.254425 0
M  V30 16 C 11.703659 8.990048 -7.638902 0
M  V30 17 C 10.821965 6.463615 -5.091734 0
M  V30 18 C 11.694022 9.133437 -9.035136 0
M  V30 19 H 12.786372 8.969328 -5.292434 0
M  V30 20 H 11.302433 9.605001 -4.589741 0
M  V30 21 H 9.288280 4.636508 -8.866924 0
M  V30 22 H 7.898250 5.769313 -8.858816 0
M  V30 23 H 10.958079 8.387301 -10.900733 0
M  V30 24 H 10.082200 6.243436 -11.974807 0
M  V30 25 H 12.107329 5.713696 -3.493097 0
M  V30 26 H 10.635924 6.457956 -2.927131 0
M  V30 27 H 9.058813 4.689898 -13.394249 0
M  V30 28 H 7.287163 4.612688 -13.329925 0
M  V30 29 H 8.088432 6.099805 -13.857016 0
M  V30 30 H 13.228350 7.728622 -3.468306 0
M  V30 31 H 11.838865 8.429807 -2.661447 0
M  V30 32 H 9.685398 6.239323 -7.380632 0
M  V30 33 H 7.170311 4.231015 -10.635798 0
M  V30 34 H 12.256821 9.696789 -7.047953 0
M  V30 35 H 9.773169 6.169321 -5.072066 0
M  V30 36 H 11.385449 5.762841 -5.706746 0
M  V30 37 H 12.235837 9.940250 -9.496750 0
M  V30 END ATOM
M  V30 BEGIN BOND
M  V30 1 1 5 2
M  V30 2 1 7 2
M  V30 3 1 9 1
M  V30 4 1 9 6
M  V30 5 2 11 8
M  V30 6 1 12 2
M  V30 7 1 12 3
M  V30 8 1 12 10
M  V30 9 1 13 1
M  V30 10 1 13 8
M  V30 11 1 14 3
M  V30 12 1 14 5
M  V30 13 2 15 4
M  V30 14 1 15 11
M  V30 15 1 15 14
M  V30 16 1 16 8
M  V30 17 1 17 6
M  V30 18 1 17 13
M  V30 19 1 18 4
M  V30 20 2 18 16
M  V30 21 1 19 1
M  V30 22 1 20 1
M  V30 23 1 21 3
M  V30 24 1 22 3
M  V30 25 1 23 4
M  V30 26 1 24 5
M  V30 27 1 25 6
M  V30 28 1 26 6
M  V30 29 1 27 7
M  V30 30 1 28 7
M  V30 31 1 29 7
M  V30 32 1 30 9
M  V30 33 1 31 9
M  V30 34 1 32 11
M  V30 35 1 12 33 CFG=1
M  V30 36 1 34 16
M  V30 37 1 35 17
M  V30 38 1 36 17
M  V30 39 1 37 18
M  V30 END BOND
M  V30 END CTAB
M  END
>  <i_epik_Tot_Q>  (1) 
0

>  <i_epik_Tot_abs_Q>  (1) 
0

>  <i_i_glide_confnum>  (1) 
23

>  <i_i_glide_lignum>  (1) 
75

>  <i_i_glide_posenum>  (1) 
89

>  <i_i_glide_rotatable_bonds>  (1) 
2

>  <i_lp_mmshare_version>  (1) 
72125

>  <i_m_source_file_index>  (1) 
44

>  <i_f3d_flags>  (1) 
0

>  <num_sample>  (1) 
100

>  <b_lp_Chiralities_Consistent>  (1) 
1

>  <r_epik_Charging_Adjusted_Penalty>  (1) 
0.0083505281845598599

>  <r_epik_Ionization_Penalty>  (1) 
0.0096858193437649089

>  <r_epik_Ionization_Penalty_Charging>  (1) 
0

>  <r_epik_Ionization_Penalty_Neutral>  (1) 
0.0096858193437649089

>  <r_epik_State_Penalty>  (1) 
0.0083505281845598599

>  <r_glide_ring_energy>  (1) 
1.652798879971576

>  <r_i_docking_score>  (1) 
-4.9912055261077244

>  <r_i_glide_ecoul>  (1) 
0.31727199837110431

>  <r_i_glide_eff_state_penalty>  (1) 
0.0083505281845598599

>  <r_i_glide_einternal>  (1) 
4.5858020928070058

>  <r_i_glide_emodel>  (1) 
-31.9225347655292

>  <r_i_glide_emodel_strain>  (1) 
0.61345855089888346

>  <r_i_glide_energy>  (1) 
-27.330114357269604

>  <r_i_glide_erotb>  (1) 
0.55876719090136395

>  <r_i_glide_esite>  (1) 
-0.1632339866373583

>  <r_i_glide_evdw>  (1) 
-27.647386355640709

>  <r_i_glide_gscore>  (1) 
-4.9995560542922846

>  <r_i_glide_gscore_strain>  (1) 
0

>  <r_i_glide_hbond>  (1) 
0

>  <r_i_glide_ligand_efficiency>  (1) 
-0.27728919589487355

>  <r_i_glide_ligand_efficiency_ln>  (1) 
-1.2829636437641807

>  <r_i_glide_ligand_efficiency_sa>  (1) 
-0.7267032738485949

>  <r_i_glide_lipo>  (1) 
-1.6014885487961967

>  <r_i_glide_metal>  (1) 
-0

>  <r_i_glide_rewards>  (1) 
-2.4588221917337236

>  <r_lp_Energy>  (1) 
4.2772959999999998

>  <s_epik_cmdline>  (1) 
J2VwaWtfcHl0aG9uJywgJy1waHQnLCAnMS4wJywgJy1waCcsICc3LjQnLCAnLXRuJywgJzgnLCAnLW1hJywgJzUwMCcsICctaW1hZScsICc8aW5maWxlLm1hZT4nLCAnLW9tYWUnLCAnPG91dGZpbGUubWFlPic=

>  <s_epik_input>  (1) 
W0NIMl0xW0NIMl1bQ0gyXVtDSDJdTjFjMltjSF1jKFtjSF1bY0hdW2NIXTIpTihbQ0gyXVtDQEBIXTNGKVtOSF1OM1tDSDNd

>  <s_glide_docking_method>  (1) 
confgen

>  <s_i_glide_gridfile>  (1) 
gpcr_drd2_6luq_protein_autoprepared_prepared

>  <s_lp_Force_Field>  (1) 
S-OPLS

>  <s_lp_Variant>  (1) 
DiffSBDD_43_num_sample_100-1

>  <s_m_source_file>  (1) 
generated__ligand_DiffSBDD_2026-05-06_prepared.sdf

>  <GenAI_Model>  (1) 
DiffSBDD

>  <Protein>  (1) 
generic_title2

$$$$
DiffSBDD_81_num_sample_100
     RDKit          3D

  0  0  0  0  0  0  0  0  0  0999 V3000
M  V30 BEGIN CTAB
M  V30 COUNTS 65 67 0 0 1
M  V30 BEGIN ATOM
M  V30 1 C 10.619510 6.801921 -9.195148 0 CFG=1
M  V30 2 C 11.435228 8.678624 -4.364444 0 CFG=1
M  V30 3 C 6.820293 0.169007 -13.499629 0
M  V30 4 C 7.618005 6.267400 -11.724871 0 CFG=1
M  V30 5 O 11.596091 6.151535 -6.329926 0
M  V30 6 O 12.868089 8.969088 -7.608534 0
M  V30 7 C 8.236599 4.823394 -13.655421 0
M  V30 8 N 7.310952 5.176321 -12.669929 0
M  V30 9 C 10.384490 7.818839 -5.147944 0
M  V30 10 C 10.829018 7.106317 -6.395927 0
M  V30 11 C 12.691555 6.108827 -1.674257 0
M  V30 12 S 8.138351 0.969400 -14.261101 0
M  V30 13 C 11.693319 6.913763 -2.484545 0
M  V30 14 C 5.281769 3.585134 -13.373360 0
M  V30 15 C 8.803709 5.925313 -10.766196 0 CFG=2
M  V30 16 C 7.328948 2.502530 -14.158371 0
M  V30 17 C 5.976043 4.539612 -12.428040 0
M  V30 18 O 9.328135 5.369567 -13.738163 0
M  V30 19 C 12.515469 8.249292 -8.564544 0
M  V30 20 N 11.265459 7.756569 -8.573708 0
M  V30 21 C 10.293608 7.619605 -7.708272 0 CFG=1
M  V30 22 C 7.632009 7.633417 -12.447728 0
M  V30 23 O 8.230124 5.369288 -9.592054 0
M  V30 24 C 7.887528 3.741034 -14.697733 0
M  V30 25 O 10.337435 7.697359 -11.491710 0
M  V30 26 O 13.292432 7.966544 -9.491730 0 CHG=-1
M  V30 27 C 9.686433 7.140805 -10.353831 0 CFG=2
M  V30 28 C 5.834719 1.050360 -13.171174 0
M  V30 29 C 12.385929 7.927340 -3.399320 0
M  V30 30 N 12.168880 9.622280 -5.226648 0 CHG=1
M  V30 31 C 11.384066 6.944752 -12.078830 0
M  V30 32 C 6.140568 2.397279 -13.558439 0
M  V30 33 H 10.940816 5.776857 -9.080832 0
M  V30 34 H 10.879564 9.369575 -3.731185 0
M  V30 35 H 6.840260 -0.898516 -13.343214 0
M  V30 36 H 6.739235 6.383027 -11.091714 0
M  V30 37 H 9.570390 8.457832 -5.491649 0
M  V30 38 H 9.941117 7.014205 -4.561473 0
M  V30 39 H 12.163261 5.369406 -1.087676 0
M  V30 40 H 13.421223 5.586952 -2.291674 0
M  V30 41 H 13.220777 6.753481 -0.985722 0
M  V30 42 H 11.029797 7.430359 -1.795046 0
M  V30 43 H 11.097514 6.201886 -3.055088 0
M  V30 44 H 5.189556 4.163232 -14.291551 0
M  V30 45 H 4.256620 3.369532 -13.091713 0
M  V30 46 H 9.434316 5.135879 -11.171599 0
M  V30 47 H 6.046898 4.046880 -11.456315 0
M  V30 48 H 5.263951 5.352281 -12.280511 0
M  V30 49 H 9.554598 8.418602 -7.693816 0
M  V30 50 H 7.657130 8.460573 -11.739400 0
M  V30 51 H 8.482797 7.744959 -13.112172 0
M  V30 52 H 6.726878 7.761620 -13.040794 0
M  V30 53 H 7.658661 6.038968 -9.224907 0
M  V30 54 H 7.179428 4.180096 -15.400735 0
M  V30 55 H 8.759768 3.526855 -15.310432 0
M  V30 56 H 9.035779 7.935272 -9.994929 0
M  V30 57 H 4.915601 0.780260 -12.691839 0
M  V30 58 H 13.188751 7.400529 -3.891679 0
M  V30 59 H 12.896748 8.662441 -2.775262 0
M  V30 60 H 12.508525 9.180740 -6.097594 0
M  V30 61 H 11.557821 10.370157 -5.516624 0
M  V30 62 H 11.683888 7.369194 -13.033842 0
M  V30 63 H 12.234832 6.969756 -11.421761 0
M  V30 64 H 11.143571 5.904019 -12.264079 0
M  V30 65 H 12.960685 10.002193 -4.733146 0
M  V30 END ATOM
M  V30 BEGIN BOND
M  V30 1 1 8 4
M  V30 2 1 8 7
M  V30 3 1 9 2
M  V30 4 2 10 5
M  V30 5 1 10 9
M  V30 6 1 12 3
M  V30 7 1 13 11
M  V30 8 1 15 4
M  V30 9 1 16 12
M  V30 10 1 17 8
M  V30 11 1 17 14
M  V30 12 2 18 7
M  V30 13 2 19 6
M  V30 14 1 20 1
M  V30 15 1 20 19
M  V30 16 1 21 1
M  V30 17 1 21 10
M  V30 18 1 21 20
M  V30 19 1 22 4
M  V30 20 1 23 15
M  V30 21 1 24 7
M  V30 22 1 24 16
M  V30 23 1 26 19
M  V30 24 1 27 1
M  V30 25 1 27 15
M  V30 26 1 27 25
M  V30 27 2 28 3
M  V30 28 1 29 2
M  V30 29 1 29 13
M  V30 30 1 30 2
M  V30 31 1 31 25
M  V30 32 1 32 14
M  V30 33 2 32 16
M  V30 34 1 32 28
M  V30 35 1 1 33 CFG=1
M  V30 36 1 2 34 CFG=1
M  V30 37 1 35 3
M  V30 38 1 4 36 CFG=1
M  V30 39 1 37 9
M  V30 40 1 38 9
M  V30 41 1 39 11
M  V30 42 1 40 11
M  V30 43 1 41 11
M  V30 44 1 42 13
M  V30 45 1 43 13
M  V30 46 1 44 14
M  V30 47 1 45 14
M  V30 48 1 15 46 CFG=3
M  V30 49 1 47 17
M  V30 50 1 48 17
M  V30 51 1 21 49 CFG=1
M  V30 52 1 50 22
M  V30 53 1 51 22
M  V30 54 1 52 22
M  V30 55 1 53 23
M  V30 56 1 54 24
M  V30 57 1 55 24
M  V30 58 1 27 56 CFG=1
M  V30 59 1 57 28
M  V30 60 1 58 29
M  V30 61 1 59 29
M  V30 62 1 60 30
M  V30 63 1 61 30
M  V30 64 1 62 31
M  V30 65 1 63 31
M  V30 66 1 64 31
M  V30 67 1 65 30
M  V30 END BOND
M  V30 END CTAB
M  END
>  <i_epik_Tot_Q>  (1) 
0

>  <i_epik_Tot_abs_Q>  (1) 
2

>  <i_i_glide_confnum>  (1) 
1021

>  <i_i_glide_lignum>  (1) 
166

>  <i_i_glide_posenum>  (1) 
88

>  <i_i_glide_rotatable_bonds>  (1) 
12

>  <i_lp_mmshare_version>  (1) 
72125

>  <i_m_source_file_index>  (1) 
82

>  <i_f3d_flags>  (1) 
0

>  <num_sample>  (1) 
100

>  <b_lp_Chiralities_Consistent>  (1) 
1

>  <r_epik_Charging_Adjusted_Penalty>  (1) 
0.020538690311271313

>  <r_epik_Ionization_Penalty>  (1) 
0.011193014289855681

>  <r_epik_Ionization_Penalty_Charging>  (1) 
0.011192617808242357

>  <r_epik_Ionization_Penalty_Neutral>  (1) 
3.9648161332337345e-07

>  <r_epik_State_Penalty>  (1) 
0.0093460725030289557

>  <r_glide_ring_energy>  (1) 
0

>  <r_i_docking_score>  (1) 
-4.9852334008629571

>  <r_i_glide_ecoul>  (1) 
-1.6301410856964607

>  <r_i_glide_eff_state_penalty>  (1) 
0.0093460725030289557

>  <r_i_glide_einternal>  (1) 
17.363240226213467

>  <r_i_glide_emodel>  (1) 
-25.879621123823632

>  <r_i_glide_emodel_strain>  (1) 
5.9559132139780502

>  <r_i_glide_energy>  (1) 
-29.967525724076609

>  <r_i_glide_erotb>  (1) 
0.64619886402953775

>  <r_i_glide_esite>  (1) 
0

>  <r_i_glide_evdw>  (1) 
-28.337384638380147

>  <r_i_glide_gscore>  (1) 
-4.9945794733659863

>  <r_i_glide_gscore_strain>  (1) 
0.48897830349451255

>  <r_i_glide_hbond>  (1) 
-0.15318694665717894

>  <r_i_glide_ligand_efficiency>  (1) 
-0.15578854377696741

>  <r_i_glide_ligand_efficiency_ln>  (1) 
-1.1163296507833207

>  <r_i_glide_ligand_efficiency_sa>  (1) 
-0.49459779655230401

>  <r_i_glide_lipo>  (1) 
-2.0880802711411346

>  <r_i_glide_metal>  (1) 
-0

>  <r_i_glide_rewards>  (1) 
-2.227099028318245

>  <r_lp_Energy>  (1) 
22.366004999999998

>  <r_lp_tautomer_probability>  (1) 
0.99999996000000102

>  <s_epik_cmdline>  (1) 
J2VwaWtfcHl0aG9uJywgJy1waHQnLCAnMS4wJywgJy1waCcsICc3LjQnLCAnLXRuJywgJzgnLCAnLW1hJywgJzUwMCcsICctaW1hZScsICc8aW5maWxlLm1hZT4nLCAnLW9tYWUnLCAnPG91dGZpbGUubWFlPic=

>  <s_epik_input>  (1) 
W0NIM11bQ0gyXVtDSDJdW0NAQEhdKFtOSDJdKVtDSDJdQyg9TylbQ0BIXTFOKEMoPU8pW09IXSlbQ0BASF0xW0NAQEhdKE9bQ0gzXSlbQ0BASF0oW09IXSlbQ0BASF0oW0NIM10pTihDKD1PKVtDSDJdMilbQ0gyXVtDSDJdYyhjMjMpW2NIXVtjSF1zMw==

>  <s_glide_docking_method>  (1) 
confgen

>  <s_i_glide_gridfile>  (1) 
gpcr_drd2_6luq_protein_autoprepared_prepared

>  <s_lp_Force_Field>  (1) 
S-OPLS

>  <s_lp_Variant>  (1) 
DiffSBDD_81_num_sample_100-1

>  <s_m_source_file>  (1) 
generated__ligand_DiffSBDD_2026-05-06_prepared.sdf

>  <GenAI_Model>  (1) 
DiffSBDD

>  <Protein>  (1) 
generic_title2

$$$$
DiffSBDD_34_num_sample_100
     RDKit          3D

  0  0  0  0  0  0  0  0  0  0999 V3000
M  V30 BEGIN CTAB
M  V30 COUNTS 61 64 0 0 1
M  V30 BEGIN ATOM
M  V30 1 N 5.548874 6.916135 -17.221625 0
M  V30 2 C 6.887019 4.508847 -14.661845 0 CFG=1
M  V30 3 C 10.007579 7.402781 -8.549283 0
M  V30 4 C 9.788672 8.496512 -7.697216 0
M  V30 5 C 8.081105 4.291436 -17.089052 0
M  V30 6 C 13.107280 9.676528 -5.797560 0
M  V30 7 C 8.191900 4.238820 -15.519118 0
M  V30 8 C 7.093117 5.368472 -17.353710 0
M  V30 9 C 11.434840 7.243894 -4.463666 0
M  V30 10 N 11.877814 8.409015 -3.907473 0
M  V30 11 C 9.043202 6.279644 -10.767804 0
M  V30 12 C 11.079645 6.204859 -6.724340 0
M  V30 13 C 10.634671 6.248902 -8.052269 0
M  V30 14 C 10.909646 7.311479 -5.880006 0
M  V30 15 O 12.468837 8.249910 -2.621359 0
M  V30 16 C 7.164005 4.608351 -13.144153 0
M  V30 17 C 12.232111 9.703940 -4.520403 0
M  V30 18 C 7.559129 2.954230 -17.645423 0
M  V30 19 C 10.236278 8.457914 -6.365207 0
M  V30 20 C 5.910741 6.855013 -18.502136 0
M  V30 21 C 7.396178 6.087415 -12.745175 0 CFG=2
M  V30 22 O 9.833258 5.769010 -12.968972 0
M  V30 23 C 6.261206 6.003444 -16.483687 0
M  V30 24 O 11.470219 6.169329 -3.869864 0
M  V30 25 S 6.908739 7.131541 -14.143277 0
M  V30 26 C 9.596304 7.495204 -10.013864 0
M  V30 27 C 9.445486 4.631284 -17.721949 0
M  V30 28 C 8.820180 6.459256 -12.267125 0 CFG=2
M  V30 29 N 6.849181 5.914770 -18.591073 0 CHG=1
M  V30 30 C 6.104281 5.799776 -15.032683 0 CFG=2
M  V30 31 O 8.795308 5.214129 -10.201891 0
M  V30 32 H 6.234831 3.655391 -14.836242 0
M  V30 33 H 9.285516 9.369306 -8.070985 0
M  V30 34 H 13.137129 10.647506 -6.290895 0
M  V30 35 H 12.765081 8.983900 -6.561269 0
M  V30 36 H 14.134543 9.402391 -5.552813 0
M  V30 37 H 8.909289 5.005870 -15.232319 0
M  V30 38 H 8.634816 3.292988 -15.212525 0
M  V30 39 H 11.583452 5.330714 -6.358706 0
M  V30 40 H 10.790415 5.402036 -8.691624 0
M  V30 41 H 12.609886 9.134816 -2.318029 0
M  V30 42 H 6.279826 4.253406 -12.613166 0
M  V30 43 H 7.972289 3.948154 -12.825739 0
M  V30 44 H 11.374560 10.368513 -4.609293 0
M  V30 45 H 12.873511 10.169293 -3.780425 0
M  V30 46 H 8.283231 2.152457 -17.494591 0
M  V30 47 H 7.361488 3.016440 -18.716546 0
M  V30 48 H 6.634878 2.646687 -17.157804 0
M  V30 49 H 10.062503 9.300614 -5.726941 0
M  V30 50 H 5.521615 7.451453 -19.309362 0
M  V30 51 H 6.692189 6.334710 -11.946459 0
M  V30 52 H 9.791031 4.856269 -12.725333 0
M  V30 53 H 4.849311 7.547166 -16.847786 0
M  V30 54 H 10.497047 7.787843 -10.552049 0
M  V30 55 H 8.916211 8.333560 -10.151599 0
M  V30 56 H 10.192289 3.872756 -17.480844 0
M  V30 57 H 9.826073 5.588680 -17.362825 0
M  V30 58 H 9.383899 4.690633 -18.808876 0
M  V30 59 H 8.971934 7.521031 -12.468762 0
M  V30 60 H 5.055074 5.731275 -14.743355 0
M  V30 61 H 7.315973 5.644439 -19.448313 0
M  V30 END ATOM
M  V30 BEGIN BOND
M  V30 1 1 4 3
M  V30 2 1 7 2
M  V30 3 1 7 5
M  V30 4 1 8 5
M  V30 5 1 10 9
M  V30 6 2 13 3
M  V30 7 1 13 12
M  V30 8 1 14 9
M  V30 9 2 14 12
M  V30 10 1 15 10
M  V30 11 1 16 2
M  V30 12 1 17 6
M  V30 13 1 17 10
M  V30 14 1 18 5
M  V30 15 2 19 4
M  V30 16 1 19 14
M  V30 17 1 20 1
M  V30 18 1 21 16
M  V30 19 1 23 1
M  V30 20 2 23 8
M  V30 21 2 24 9
M  V30 22 1 25 21
M  V30 23 1 26 3
M  V30 24 1 26 11
M  V30 25 1 27 5
M  V30 26 1 28 11
M  V30 27 1 28 21
M  V30 28 1 28 22
M  V30 29 1 29 8
M  V30 30 2 29 20
M  V30 31 1 30 2
M  V30 32 1 30 23
M  V30 33 1 30 25
M  V30 34 2 31 11
M  V30 35 1 2 32 CFG=1
M  V30 36 1 33 4
M  V30 37 1 34 6
M  V30 38 1 35 6
M  V30 39 1 36 6
M  V30 40 1 37 7
M  V30 41 1 38 7
M  V30 42 1 39 12
M  V30 43 1 40 13
M  V30 44 1 41 15
M  V30 45 1 42 16
M  V30 46 1 43 16
M  V30 47 1 44 17
M  V30 48 1 45 17
M  V30 49 1 46 18
M  V30 50 1 47 18
M  V30 51 1 48 18
M  V30 52 1 49 19
M  V30 53 1 50 20
M  V30 54 1 21 51 CFG=1
M  V30 55 1 52 22
M  V30 56 1 53 1
M  V30 57 1 54 26
M  V30 58 1 55 26
M  V30 59 1 56 27
M  V30 60 1 57 27
M  V30 61 1 58 27
M  V30 62 1 28 59 CFG=1
M  V30 63 1 30 60 CFG=3
M  V30 64 1 61 29
M  V30 END BOND
M  V30 END CTAB
M  END
>  <i_epik_Tot_Q>  (1) 
1

>  <i_epik_Tot_abs_Q>  (1) 
1

>  <i_i_glide_confnum>  (1) 
174

>  <i_i_glide_lignum>  (1) 
60

>  <i_i_glide_posenum>  (1) 
177

>  <i_i_glide_rotatable_bonds>  (1) 
9

>  <i_lp_mmshare_version>  (1) 
72125

>  <i_m_source_file_index>  (1) 
35

>  <i_f3d_flags>  (1) 
0

>  <num_sample>  (1) 
100

>  <b_lp_Chiralities_Consistent>  (1) 
1

>  <r_epik_Charging_Adjusted_Penalty>  (1) 
0.45828602493401616

>  <r_epik_Ionization_Penalty>  (1) 
0.57733411105264909

>  <r_epik_Ionization_Penalty_Charging>  (1) 
0

>  <r_epik_Ionization_Penalty_Neutral>  (1) 
0.57733411105264909

>  <r_epik_State_Penalty>  (1) 
0.45828602493401616

>  <r_glide_ring_energy>  (1) 
0

>  <r_i_docking_score>  (1) 
-4.9734637825363199

>  <r_i_glide_ecoul>  (1) 
-0.64996418841728554

>  <r_i_glide_eff_state_penalty>  (1) 
0.45828602493401616

>  <r_i_glide_einternal>  (1) 
13.409649288750259

>  <r_i_glide_emodel>  (1) 
-40.082475999061955

>  <r_i_glide_emodel_strain>  (1) 
2.2415545911891286

>  <r_i_glide_energy>  (1) 
-35.14180362355193

>  <r_i_glide_erotb>  (1) 
0.60717041942003669

>  <r_i_glide_esite>  (1) 
-0.072555115065460751

>  <r_i_glide_evdw>  (1) 
-34.491839435134644

>  <r_i_glide_gscore>  (1) 
-5.4317498074703359

>  <r_i_glide_gscore_strain>  (1) 
0

>  <r_i_glide_hbond>  (1) 
0

>  <r_i_glide_ligand_efficiency>  (1) 
-0.16043431556568774

>  <r_i_glide_ligand_efficiency_ln>  (1) 
-1.1216685013221221

>  <r_i_glide_ligand_efficiency_sa>  (1) 
-0.50398525489770685

>  <r_i_glide_lipo>  (1) 
-2.4721897433691011

>  <r_i_glide_metal>  (1) 
-0

>  <r_i_glide_rewards>  (1) 
-1.6720887684364854

>  <r_lp_Energy>  (1) 
47.808426999999995

>  <r_lp_tautomer_probability>  (1) 
0.99990000499974985

>  <s_epik_Chemistry_Notes>  (1) 
This compound has a N-S or N-O group and may undergo hydrolysis at high or low pH.

>  <s_epik_cmdline>  (1) 
J2VwaWtfcHl0aG9uJywgJy1waHQnLCAnMS4wJywgJy1waCcsICc3LjQnLCAnLXRuJywgJzgnLCAnLW1hJywgJzUwMCcsICctaW1hZScsICc8aW5maWxlLm1hZT4nLCAnLW9tYWUnLCAnPG91dGZpbGUubWFlPic=

>  <s_epik_input>  (1) 
TjE9W0NIXU49QyhDKFtDSDJdMikoW0NIM10pW0NIM10pW0NASF0xW0NAQEhdKFtDQEBIXTIzKVNbQ0BASF0oW0NIMl0zKVtDQEhdKFtPSF0pQyg9TylbQ0gyXWM0W2NIXVtjSF1jKFtjSF1bY0hdNClDKD1PKU4oW09IXSlbQ0gyXVtDSDNd

>  <s_glide_docking_method>  (1) 
confgen

>  <s_i_glide_gridfile>  (1) 
gpcr_drd2_6luq_protein_autoprepared_prepared

>  <s_lp_Force_Field>  (1) 
S-OPLS

>  <s_lp_Variant>  (1) 
DiffSBDD_34_num_sample_100-1

>  <s_m_source_file>  (1) 
generated__ligand_DiffSBDD_2026-05-06_prepared.sdf

>  <GenAI_Model>  (1) 
DiffSBDD

>  <Protein>  (1) 
generic_title2

$$$$
DiffSBDD_21_num_sample_100
     RDKit          3D

  0  0  0  0  0  0  0  0  0  0999 V3000
M  V30 BEGIN CTAB
M  V30 COUNTS 68 72 0 0 1
M  V30 BEGIN ATOM
M  V30 1 C 8.191021 2.924708 -20.989965 0
M  V30 2 C 7.344380 2.297148 -16.335446 0
M  V30 3 C 10.859159 7.369679 -9.116200 0
M  V30 4 C 9.747322 0.424956 -18.917814 0 CFG=2
M  V30 5 C 7.934523 5.133303 -10.470651 0
M  V30 6 C 8.093791 3.729311 -14.488023 0
M  V30 7 C 8.600444 -0.453083 -18.324259 0
M  V30 8 O 5.835657 0.365203 -16.099882 0
M  V30 9 C 9.141614 6.166281 -7.873695 0
M  V30 10 C 10.002694 -0.073712 -20.356594 0
M  V30 11 C 7.440194 3.409045 -17.224368 0
M  V30 12 O 8.414562 3.865727 -13.152095 0
M  V30 13 C 8.074159 -0.099819 -16.911496 0
M  V30 14 F 11.404011 7.766168 -10.292097 0
M  V30 15 C 9.204661 4.961838 -12.710114 0
M  V30 16 C 11.887100 2.701176 -18.516333 0
M  V30 17 C 8.181288 4.826499 -15.377978 0
M  V30 18 C 10.880459 7.374521 -6.677575 0
M  V30 19 F 11.665019 3.068302 -17.253202 0
M  V30 20 S 11.225179 0.090739 -17.891823 0
M  V30 21 C 7.112787 3.257599 -18.708833 0
M  V30 22 C 7.856525 4.663748 -16.734753 0
M  V30 23 O 7.609389 1.417308 -14.097505 0
M  V30 24 C 6.900942 0.913753 -16.853639 0 CFG=2
M  V30 25 F 11.434871 7.773533 -5.510191 0
M  V30 26 C 11.448707 7.771110 -7.900872 0
M  V30 27 C 12.430023 1.270082 -18.550687 0
M  V30 28 F 12.817342 3.511296 -19.021146 0
M  V30 29 C 10.605003 2.866710 -19.346694 0
M  V30 30 C 9.733544 6.569971 -6.666155 0
M  V30 31 C 9.033391 6.176557 -10.406248 0 CFG=1
M  V30 32 C 9.434825 1.958379 -18.890728 0 CFG=1
M  V30 33 C 8.064548 2.361608 -19.558494 0 CFG=2
M  V30 34 C 9.695823 6.565529 -9.111955 0
M  V30 35 C 9.234020 4.910845 -11.201130 0 CFG=1
M  V30 36 C 7.676885 2.470688 -14.964877 0
M  V30 37 H 8.653089 3.912079 -21.002919 0
M  V30 38 H 8.779893 2.272306 -21.633508 0
M  V30 39 H 7.208114 3.026082 -21.451511 0
M  V30 40 H 7.054817 5.378576 -11.062461 0
M  V30 41 H 7.749563 4.470249 -9.630545 0
M  V30 42 H 8.984529 -1.472525 -18.265755 0
M  V30 43 H 7.761504 -0.544864 -19.013245 0
M  V30 44 H 5.677398 -0.520594 -16.388434 0
M  V30 45 H 8.248143 5.562614 -7.850282 0
M  V30 46 H 9.121573 0.053179 -20.984876 0
M  V30 47 H 10.826648 0.444042 -20.844344 0
M  V30 48 H 10.238987 -1.137146 -20.366349 0
M  V30 49 H 8.891012 0.218738 -16.269016 0
M  V30 50 H 7.738644 -1.038312 -16.468891 0
M  V30 51 H 10.220550 4.921502 -13.105011 0
M  V30 52 H 8.759539 5.915153 -12.991488 0
M  V30 53 H 8.499303 5.792397 -15.025818 0
M  V30 54 H 6.077400 2.933043 -18.820845 0
M  V30 55 H 7.116807 4.261649 -19.134546 0
M  V30 56 H 7.931876 5.506230 -17.406751 0
M  V30 57 H 7.868407 1.673787 -13.224466 0
M  V30 58 H 6.449217 0.984523 -17.836890 0
M  V30 59 H 12.332898 8.390498 -7.909278 0
M  V30 60 H 13.341632 1.198146 -17.956986 0
M  V30 61 H 12.694289 0.983923 -19.568492 0
M  V30 62 H 10.292070 3.909062 -19.272038 0
M  V30 63 H 10.836080 2.695819 -20.397923 0
M  V30 64 H 9.298280 6.266576 -5.726159 0
M  V30 65 H 8.839846 7.088902 -10.968207 0
M  V30 66 H 9.400739 2.156153 -17.828295 0
M  V30 67 H 7.501336 1.447415 -19.711415 0
M  V30 68 H 9.834802 4.112540 -10.777382 0
M  V30 END ATOM
M  V30 BEGIN BOND
M  V30 1 1 7 4
M  V30 2 1 4 10 CFG=3
M  V30 3 2 11 2
M  V30 4 1 12 6
M  V30 5 1 13 7
M  V30 6 1 14 3
M  V30 7 1 15 12
M  V30 8 1 17 6
M  V30 9 1 19 16
M  V30 10 1 20 4
M  V30 11 1 21 11
M  V30 12 1 22 11
M  V30 13 2 22 17
M  V30 14 1 24 2
M  V30 15 1 24 8
M  V30 16 1 24 13
M  V30 17 1 25 18
M  V30 18 1 26 3
M  V30 19 2 26 18
M  V30 20 1 27 16
M  V30 21 1 27 20
M  V30 22 1 28 16
M  V30 23 1 29 16
M  V30 24 2 30 9
M  V30 25 1 30 18
M  V30 26 1 31 5
M  V30 27 1 32 4
M  V30 28 1 32 29
M  V30 29 1 33 1
M  V30 30 1 33 21
M  V30 31 1 33 32
M  V30 32 2 34 3
M  V30 33 1 34 9
M  V30 34 1 34 31
M  V30 35 1 35 5
M  V30 36 1 35 15
M  V30 37 1 35 31
M  V30 38 1 36 2
M  V30 39 2 36 6
M  V30 40 1 36 23
M  V30 41 1 37 1
M  V30 42 1 38 1
M  V30 43 1 39 1
M  V30 44 1 40 5
M  V30 45 1 41 5
M  V30 46 1 42 7
M  V30 47 1 43 7
M  V30 48 1 44 8
M  V30 49 1 45 9
M  V30 50 1 46 10
M  V30 51 1 47 10
M  V30 52 1 48 10
M  V30 53 1 49 13
M  V30 54 1 50 13
M  V30 55 1 51 15
M  V30 56 1 52 15
M  V30 57 1 53 17
M  V30 58 1 54 21
M  V30 59 1 55 21
M  V30 60 1 56 22
M  V30 61 1 57 23
M  V30 62 1 24 58 CFG=3
M  V30 63 1 59 26
M  V30 64 1 60 27
M  V30 65 1 61 27
M  V30 66 1 62 29
M  V30 67 1 63 29
M  V30 68 1 64 30
M  V30 69 1 31 65 CFG=3
M  V30 70 1 32 66 CFG=1
M  V30 71 1 33 67 CFG=3
M  V30 72 1 35 68 CFG=3
M  V30 END BOND
M  V30 END CTAB
M  END
>  <i_epik_Tot_Q>  (1) 
0

>  <i_epik_Tot_abs_Q>  (1) 
0

>  <i_i_glide_confnum>  (1) 
45

>  <i_i_glide_lignum>  (1) 
33

>  <i_i_glide_posenum>  (1) 
149

>  <i_i_glide_rotatable_bonds>  (1) 
6

>  <i_lp_mmshare_version>  (1) 
72125

>  <i_m_source_file_index>  (1) 
22

>  <i_f3d_flags>  (1) 
0

>  <num_sample>  (1) 
100

>  <b_lp_Chiralities_Consistent>  (1) 
1

>  <r_epik_Charging_Adjusted_Penalty>  (1) 
0

>  <r_epik_Ionization_Penalty>  (1) 
0.0009051571753108589

>  <r_epik_Ionization_Penalty_Charging>  (1) 
0

>  <r_epik_Ionization_Penalty_Neutral>  (1) 
0.0009051571753108589

>  <r_epik_State_Penalty>  (1) 
-0

>  <r_glide_ring_energy>  (1) 
0

>  <r_i_docking_score>  (1) 
-4.9623753946007803

>  <r_i_glide_ecoul>  (1) 
-2.0610698968994092

>  <r_i_glide_eff_state_penalty>  (1) 
-0

>  <r_i_glide_einternal>  (1) 
3.9243754785712883

>  <r_i_glide_emodel>  (1) 
-46.793435056924274

>  <r_i_glide_emodel_strain>  (1) 
0.98976845572697414

>  <r_i_glide_energy>  (1) 
-39.188524759785217

>  <r_i_glide_erotb>  (1) 
0.29906164395455315

>  <r_i_glide_esite>  (1) 
0

>  <r_i_glide_evdw>  (1) 
-37.127454862885806

>  <r_i_glide_gscore>  (1) 
-4.9623753946007803

>  <r_i_glide_gscore_strain>  (1) 
0

>  <r_i_glide_hbond>  (1) 
0

>  <r_i_glide_ligand_efficiency>  (1) 
-0.13784376096113279

>  <r_i_glide_ligand_efficiency_ln>  (1) 
-1.082656243212182

>  <r_i_glide_ligand_efficiency_sa>  (1) 
-0.45515007040768179

>  <r_i_glide_lipo>  (1) 
-1.7717718175357478

>  <r_i_glide_metal>  (1) 
-0

>  <r_i_glide_rewards>  (1) 
-1.3241319933403846

>  <r_lp_Energy>  (1) 
62.008314999999996

>  <r_lp_tautomer_probability>  (1) 
1

>  <s_epik_cmdline>  (1) 
J2VwaWtfcHl0aG9uJywgJy1waHQnLCAnMS4wJywgJy1waCcsICc3LjQnLCAnLXRuJywgJzgnLCAnLW1hJywgJzUwMCcsICctaW1hZScsICc8aW5maWxlLm1hZT4nLCAnLW9tYWUnLCAnPG91dGZpbGUubWFlPic=

>  <s_epik_input>  (1) 
UzFbQ0gyXUMoRikoRilbQ0gyXVtDQEhdKFtDQEBdMTJbQ0gzXSlbQ0BIXShbQ0gzXSlbQ0gyXWMzYyhbQ0BIXShbT0hdKVtDSDJdW0NIMl0yKWMoW09IXSljKFtjSF1bY0hdMylPW0NIMl1bQ0BASF00W0NIMl1bQ0hdNGM1W2NIXVtjSF1jKEYpW2NIXWM1Rg==

>  <s_glide_docking_method>  (1) 
confgen

>  <s_i_glide_gridfile>  (1) 
gpcr_drd2_6luq_protein_autoprepared_prepared

>  <s_lp_Force_Field>  (1) 
S-OPLS

>  <s_lp_Variant>  (1) 
DiffSBDD_21_num_sample_100-1

>  <s_m_source_file>  (1) 
generated__ligand_DiffSBDD_2026-05-06_prepared.sdf

>  <GenAI_Model>  (1) 
DiffSBDD

>  <Protein>  (1) 
generic_title2

$$$$
DiffSBDD_74_num_sample_100
     RDKit          3D

  0  0  0  0  0  0  0  0  0  0999 V3000
M  V30 BEGIN CTAB
M  V30 COUNTS 50 51 0 0 1
M  V30 BEGIN ATOM
M  V30 1 C 9.050522 5.035570 -9.783951 0
M  V30 2 C 8.091099 3.357974 -17.844667 0
M  V30 3 F 6.234954 3.100168 -12.832543 0
M  V30 4 C 10.143131 7.264716 -8.124842 0 CFG=1
M  V30 5 O 8.377260 0.560263 -16.603760 0
M  V30 6 C 7.365205 4.026552 -15.501064 0
M  V30 7 C 8.824717 6.663202 -11.674414 0
M  V30 8 C 10.203811 7.305096 -9.669426 0 CFG=2
M  V30 9 F 11.434840 9.274727 -7.900708 0
M  V30 10 C 8.989745 5.042139 -8.265295 0
M  V30 11 F 7.834839 5.537137 -7.854440 0
M  V30 12 F 9.944914 8.569300 -10.005115 0
M  V30 13 C 10.114637 5.826166 -7.617098 0
M  V30 14 C 7.951199 4.149092 -14.079856 0 CFG=2
M  V30 15 C 8.000829 2.912737 -16.369366 0 CFG=1
M  V30 16 O 6.256513 1.366642 -17.051002 0
M  V30 17 C 11.334425 8.013472 -7.482514 0
M  V30 18 C 7.385735 1.485170 -16.217787 0
M  V30 19 O 9.000251 7.710719 -12.291681 0
M  V30 20 C 7.809318 1.547115 -13.631852 0
M  V30 21 F 9.034838 3.774309 -7.891666 0
M  V30 22 N 9.322789 6.351425 -10.396838 0
M  V30 23 C 7.527180 2.987165 -13.146773 0 CFG=2
M  V30 24 C 6.922800 1.079350 -14.798373 0
M  V30 25 O 8.116389 5.613256 -12.152011 0
M  V30 26 F 11.225840 8.017844 -6.153672 0
M  V30 27 C 7.609719 5.535612 -13.475173 0
M  V30 28 H 8.108602 4.585758 -10.100321 0
M  V30 29 H 9.834822 4.355913 -10.116882 0
M  V30 30 H 7.109320 3.581535 -18.263283 0
M  V30 31 H 8.696212 4.259701 -17.942455 0
M  V30 32 H 8.557448 2.590926 -18.463718 0
M  V30 33 H 9.215364 7.748275 -7.812009 0
M  V30 34 H 8.049207 -0.310488 -16.430217 0
M  V30 35 H 6.284240 3.917593 -15.448223 0
M  V30 36 H 7.531162 4.982552 -15.999920 0
M  V30 37 H 11.224175 7.115101 -10.000231 0
M  V30 38 H 10.000854 5.806917 -6.533179 0
M  V30 39 H 11.053810 5.334197 -7.839677 0
M  V30 40 H 9.036427 4.126294 -14.162024 0
M  V30 41 H 9.034839 2.843316 -16.043826 0
M  V30 42 H 6.497085 1.682220 -17.908201 0
M  V30 43 H 12.280996 7.529600 -7.722517 0
M  V30 44 H 7.613897 0.883066 -12.788822 0
M  V30 45 H 8.861338 1.394691 -13.865062 0
M  V30 46 H 8.063449 3.105577 -12.206736 0
M  V30 47 H 5.905738 1.424173 -14.617969 0
M  V30 48 H 6.836382 -0.008279 -14.755051 0
M  V30 49 H 8.017973 6.327503 -14.103870 0
M  V30 50 H 6.529525 5.680202 -13.442225 0
M  V30 END ATOM
M  V30 BEGIN BOND
M  V30 1 1 8 4
M  V30 2 1 10 1
M  V30 3 1 11 10
M  V30 4 1 12 8
M  V30 5 1 13 4
M  V30 6 1 13 10
M  V30 7 1 14 6
M  V30 8 1 15 2
M  V30 9 1 15 6
M  V30 10 1 17 4
M  V30 11 1 17 9
M  V30 12 1 18 5
M  V30 13 1 18 15
M  V30 14 1 18 16
M  V30 15 2 19 7
M  V30 16 1 21 10
M  V30 17 1 22 1
M  V30 18 1 22 7
M  V30 19 1 22 8
M  V30 20 1 23 3
M  V30 21 1 23 14
M  V30 22 1 23 20
M  V30 23 1 24 18
M  V30 24 1 24 20
M  V30 25 1 25 7
M  V30 26 1 26 17
M  V30 27 1 27 14
M  V30 28 1 27 25
M  V30 29 1 28 1
M  V30 30 1 29 1
M  V30 31 1 30 2
M  V30 32 1 31 2
M  V30 33 1 32 2
M  V30 34 1 4 33 CFG=1
M  V30 35 1 34 5
M  V30 36 1 35 6
M  V30 37 1 36 6
M  V30 38 1 8 37 CFG=1
M  V30 39 1 38 13
M  V30 40 1 39 13
M  V30 41 1 14 40 CFG=3
M  V30 42 1 15 41 CFG=1
M  V30 43 1 42 16
M  V30 44 1 43 17
M  V30 45 1 44 20
M  V30 46 1 45 20
M  V30 47 1 23 46 CFG=1
M  V30 48 1 47 24
M  V30 49 1 48 24
M  V30 50 1 49 27
M  V30 51 1 50 27
M  V30 END BOND
M  V30 END CTAB
M  END
>  <i_epik_Tot_Q>  (1) 
0

>  <i_epik_Tot_abs_Q>  (1) 
0

>  <i_i_glide_confnum>  (1) 
46

>  <i_i_glide_lignum>  (1) 
149

>  <i_i_glide_posenum>  (1) 
371

>  <i_i_glide_rotatable_bonds>  (1) 
7

>  <i_lp_mmshare_version>  (1) 
72125

>  <i_m_source_file_index>  (1) 
75

>  <i_f3d_flags>  (1) 
0

>  <num_sample>  (1) 
100

>  <b_lp_Chiralities_Consistent>  (1) 
1

>  <r_epik_Charging_Adjusted_Penalty>  (1) 
0

>  <r_epik_Ionization_Penalty>  (1) 
3.1339630279600532e-07

>  <r_epik_Ionization_Penalty_Charging>  (1) 
0

>  <r_epik_Ionization_Penalty_Neutral>  (1) 
3.1339630279600532e-07

>  <r_epik_State_Penalty>  (1) 
-0

>  <r_glide_ring_energy>  (1) 
0.018491767476775479

>  <r_i_docking_score>  (1) 
-4.9595944556235958

>  <r_i_glide_ecoul>  (1) 
-2.2391738585126841

>  <r_i_glide_eff_state_penalty>  (1) 
-0

>  <r_i_glide_einternal>  (1) 
4.065921305786059

>  <r_i_glide_emodel>  (1) 
-34.266406476532126

>  <r_i_glide_emodel_strain>  (1) 
0.90242766854758827

>  <r_i_glide_energy>  (1) 
-27.583015456383201

>  <r_i_glide_erotb>  (1) 
0.47417469053287281

>  <r_i_glide_esite>  (1) 
-0.2651976333081088

>  <r_i_glide_evdw>  (1) 
-25.343841597870519

>  <r_i_glide_gscore>  (1) 
-4.9595944556235958

>  <r_i_glide_gscore_strain>  (1) 
0

>  <r_i_glide_hbond>  (1) 
0

>  <r_i_glide_ligand_efficiency>  (1) 
-0.18368868354161466

>  <r_i_glide_ligand_efficiency_ln>  (1) 
-1.1545118239642664

>  <r_i_glide_ligand_efficiency_sa>  (1) 
-0.55106605062484404

>  <r_i_glide_lipo>  (1) 
-1.4221602477656334

>  <r_i_glide_metal>  (1) 
-0

>  <r_i_glide_rewards>  (1) 
-2.1433431064122979

>  <r_lp_Energy>  (1) 
27.319579999999998

>  <r_lp_tautomer_probability>  (1) 
1

>  <s_epik_Chemistry_Notes>  (1) 
This compound has an ester and may undergo hydrolysis at high or low pH.

>  <s_epik_cmdline>  (1) 
J2VwaWtfcHl0aG9uJywgJy1waHQnLCAnMS4wJywgJy1waCcsICc3LjQnLCAnLXRuJywgJzgnLCAnLW1hJywgJzUwMCcsICctaW1hZScsICc8aW5maWxlLm1hZT4nLCAnLW9tYWUnLCAnPG91dGZpbGUubWFlPic=

>  <s_epik_input>  (1) 
RltDSF0oRilbQ0BIXShbQ0gyXTEpW0NAQEhdKEYpTihbQ0gyXUMxKEYpRilDKD1PKU9bQ0gyXVtDQEBIXShbQ0BASF0oRilbQ0gyXVtDSDJdMilbQ0gyXVtDQEhdKFtDSDNdKUMyKFtPSF0pW09IXQ==

>  <s_glide_docking_method>  (1) 
confgen

>  <s_i_glide_gridfile>  (1) 
gpcr_drd2_6luq_protein_autoprepared_prepared

>  <s_lp_Force_Field>  (1) 
S-OPLS

>  <s_lp_Variant>  (1) 
DiffSBDD_74_num_sample_100-2

>  <s_m_source_file>  (1) 
generated__ligand_DiffSBDD_2026-05-06_prepared.sdf

>  <GenAI_Model>  (1) 
DiffSBDD

>  <Protein>  (1) 
generic_title2

$$$$
DiffSBDD_21_num_sample_100
     RDKit          3D

  0  0  0  0  0  0  0  0  0  0999 V3000
M  V30 BEGIN CTAB
M  V30 COUNTS 68 72 0 0 1
M  V30 BEGIN ATOM
M  V30 1 C 8.308050 3.101072 -20.888990 0
M  V30 2 C 7.340714 2.084357 -16.309937 0
M  V30 3 C 10.926321 7.490330 -9.394256 0
M  V30 4 C 9.947160 0.540995 -19.010805 0 CFG=2
M  V30 5 C 7.884489 5.769310 -11.094011 0
M  V30 6 C 7.834819 3.366585 -14.276697 0
M  V30 7 C 8.835333 -0.430472 -18.500264 0
M  V30 8 O 5.948313 0.057349 -16.370530 0
M  V30 9 C 9.218200 6.132994 -8.303383 0
M  V30 10 C 10.233497 0.181485 -20.485119 0
M  V30 11 C 7.434861 3.285099 -17.078445 0
M  V30 12 O 8.030557 3.402383 -12.915729 0
M  V30 13 C 8.253808 -0.202246 -17.081263 0
M  V30 14 F 11.537455 7.936573 -10.516088 0
M  V30 15 C 9.226112 4.026611 -12.452937 0
M  V30 16 C 11.976355 2.866454 -18.379915 0
M  V30 17 C 7.917948 4.548906 -15.042070 0
M  V30 18 C 10.757355 7.462877 -6.961358 0
M  V30 19 F 11.725836 3.100039 -17.091757 0
M  V30 20 S 11.444336 0.169434 -18.031329 0
M  V30 21 C 7.218381 3.272611 -18.597026 0
M  V30 22 C 7.723006 4.507213 -16.433121 0
M  V30 23 O 7.479660 1.003513 -14.148543 0
M  V30 24 C 7.021061 0.739870 -16.990802 0 CFG=2
M  V30 25 F 11.195369 7.882871 -5.750458 0
M  V30 26 C 11.382982 7.921508 -8.132927 0
M  V30 27 C 12.589929 1.473670 -18.548488 0
M  V30 28 F 12.868109 3.766729 -18.793083 0
M  V30 29 C 10.693694 3.050326 -19.201898 0
M  V30 30 C 9.677978 6.569237 -7.046276 0
M  V30 31 C 9.332329 6.141971 -10.848220 0 CFG=1
M  V30 32 C 9.565275 2.051359 -18.840821 0 CFG=1
M  V30 33 C 8.193497 2.452115 -19.493431 0 CFG=2
M  V30 34 C 9.834824 6.593350 -9.492220 0
M  V30 35 C 8.947059 4.704271 -11.133937 0 CFG=1
M  V30 36 C 7.548422 2.138938 -14.903832 0
M  V30 37 H 8.741026 4.100310 -20.842617 0
M  V30 38 H 8.916787 2.504761 -21.567223 0
M  V30 39 H 7.324067 3.197987 -21.349103 0
M  V30 40 H 7.446127 6.072223 -12.042558 0
M  V30 41 H 7.192815 5.756515 -10.255135 0
M  V30 42 H 9.268711 -1.430798 -18.502149 0
M  V30 43 H 8.016696 -0.514104 -19.214383 0
M  V30 44 H 5.221796 0.653488 -16.281504 0
M  V30 45 H 8.383590 5.450335 -8.357756 0
M  V30 46 H 9.339833 0.272711 -21.101666 0
M  V30 47 H 11.003147 0.809683 -20.930180 0
M  V30 48 H 10.574625 -0.849909 -20.576790 0
M  V30 49 H 9.032095 0.102931 -16.383482 0
M  V30 50 H 7.949853 -1.186503 -16.721008 0
M  V30 51 H 9.978797 3.256963 -12.297225 0
M  V30 52 H 9.656513 4.749481 -13.146018 0
M  V30 53 H 8.131861 5.491527 -14.559885 0
M  V30 54 H 6.187341 2.981796 -18.802012 0
M  V30 55 H 7.266285 4.312824 -18.921406 0
M  V30 56 H 7.791325 5.418035 -17.009362 0
M  V30 57 H 7.642233 1.185874 -13.234807 0
M  V30 58 H 6.609019 0.894143 -17.980102 0
M  V30 59 H 12.214725 8.607154 -8.066701 0
M  V30 60 H 13.499005 1.389348 -17.952560 0
M  V30 61 H 12.877682 1.305522 -19.585887 0
M  V30 62 H 10.332466 4.066229 -19.036073 0
M  V30 63 H 10.939084 2.988734 -20.261999 0
M  V30 64 H 9.197133 6.217287 -6.145011 0
M  V30 65 H 9.820493 6.692879 -11.649276 0
M  V30 66 H 9.490190 2.155165 -17.765241 0
M  V30 67 H 7.660232 1.534322 -19.711765 0
M  V30 68 H 8.951365 4.022379 -10.291722 0
M  V30 END ATOM
M  V30 BEGIN BOND
M  V30 1 1 7 4
M  V30 2 1 4 10 CFG=3
M  V30 3 2 11 2
M  V30 4 1 12 6
M  V30 5 1 13 7
M  V30 6 1 14 3
M  V30 7 1 15 12
M  V30 8 1 17 6
M  V30 9 1 19 16
M  V30 10 1 20 4
M  V30 11 1 21 11
M  V30 12 1 22 11
M  V30 13 2 22 17
M  V30 14 1 24 2
M  V30 15 1 24 8
M  V30 16 1 24 13
M  V30 17 1 25 18
M  V30 18 1 26 3
M  V30 19 2 26 18
M  V30 20 1 27 16
M  V30 21 1 27 20
M  V30 22 1 28 16
M  V30 23 1 29 16
M  V30 24 2 30 9
M  V30 25 1 30 18
M  V30 26 1 31 5
M  V30 27 1 32 4
M  V30 28 1 32 29
M  V30 29 1 33 1
M  V30 30 1 33 21
M  V30 31 1 33 32
M  V30 32 2 34 3
M  V30 33 1 34 9
M  V30 34 1 34 31
M  V30 35 1 35 5
M  V30 36 1 35 15
M  V30 37 1 35 31
M  V30 38 1 36 2
M  V30 39 2 36 6
M  V30 40 1 36 23
M  V30 41 1 37 1
M  V30 42 1 38 1
M  V30 43 1 39 1
M  V30 44 1 40 5
M  V30 45 1 41 5
M  V30 46 1 42 7
M  V30 47 1 43 7
M  V30 48 1 44 8
M  V30 49 1 45 9
M  V30 50 1 46 10
M  V30 51 1 47 10
M  V30 52 1 48 10
M  V30 53 1 49 13
M  V30 54 1 50 13
M  V30 55 1 51 15
M  V30 56 1 52 15
M  V30 57 1 53 17
M  V30 58 1 54 21
M  V30 59 1 55 21
M  V30 60 1 56 22
M  V30 61 1 57 23
M  V30 62 1 24 58 CFG=3
M  V30 63 1 59 26
M  V30 64 1 60 27
M  V30 65 1 61 27
M  V30 66 1 62 29
M  V30 67 1 63 29
M  V30 68 1 64 30
M  V30 69 1 31 65 CFG=3
M  V30 70 1 32 66 CFG=1
M  V30 71 1 33 67 CFG=3
M  V30 72 1 35 68 CFG=1
M  V30 END BOND
M  V30 END CTAB
M  END
>  <i_epik_Tot_Q>  (1) 
0

>  <i_epik_Tot_abs_Q>  (1) 
0

>  <i_i_glide_confnum>  (1) 
68

>  <i_i_glide_lignum>  (1) 
33

>  <i_i_glide_posenum>  (1) 
259

>  <i_i_glide_rotatable_bonds>  (1) 
6

>  <i_lp_mmshare_version>  (1) 
72125

>  <i_m_source_file_index>  (1) 
22

>  <i_f3d_flags>  (1) 
0

>  <num_sample>  (1) 
100

>  <b_lp_Chiralities_Consistent>  (1) 
1

>  <r_epik_Charging_Adjusted_Penalty>  (1) 
0

>  <r_epik_Ionization_Penalty>  (1) 
0.0009051571753108589

>  <r_epik_Ionization_Penalty_Charging>  (1) 
0

>  <r_epik_Ionization_Penalty_Neutral>  (1) 
0.0009051571753108589

>  <r_epik_State_Penalty>  (1) 
-0

>  <r_glide_ring_energy>  (1) 
0

>  <r_i_docking_score>  (1) 
-4.9565338706626605

>  <r_i_glide_ecoul>  (1) 
-1.1532509631242043

>  <r_i_glide_eff_state_penalty>  (1) 
-0

>  <r_i_glide_einternal>  (1) 
6.2140075003695205

>  <r_i_glide_emodel>  (1) 
-47.104121374814824

>  <r_i_glide_emodel_strain>  (1) 
0.007175097315290202

>  <r_i_glide_energy>  (1) 
-39.673860881158774

>  <r_i_glide_erotb>  (1) 
0.29906164395455315

>  <r_i_glide_esite>  (1) 
0

>  <r_i_glide_evdw>  (1) 
-38.520609918034573

>  <r_i_glide_gscore>  (1) 
-4.9565338706626605

>  <r_i_glide_gscore_strain>  (1) 
0

>  <r_i_glide_hbond>  (1) 
0

>  <r_i_glide_ligand_efficiency>  (1) 
-0.13768149640729613

>  <r_i_glide_ligand_efficiency_ln>  (1) 
-1.0813817805086228

>  <r_i_glide_ligand_efficiency_sa>  (1) 
-0.45461428465583881

>  <r_i_glide_lipo>  (1) 
-1.8322573798719388

>  <r_i_glide_metal>  (1) 
-0

>  <r_i_glide_rewards>  (1) 
-1.3243199943749153

>  <r_lp_Energy>  (1) 
62.008314999999996

>  <r_lp_tautomer_probability>  (1) 
1

>  <s_epik_cmdline>  (1) 
J2VwaWtfcHl0aG9uJywgJy1waHQnLCAnMS4wJywgJy1waCcsICc3LjQnLCAnLXRuJywgJzgnLCAnLW1hJywgJzUwMCcsICctaW1hZScsICc8aW5maWxlLm1hZT4nLCAnLW9tYWUnLCAnPG91dGZpbGUubWFlPic=

>  <s_epik_input>  (1) 
UzFbQ0gyXUMoRikoRilbQ0gyXVtDQEhdKFtDQEBdMTJbQ0gzXSlbQ0BIXShbQ0gzXSlbQ0gyXWMzYyhbQ0BIXShbT0hdKVtDSDJdW0NIMl0yKWMoW09IXSljKFtjSF1bY0hdMylPW0NIMl1bQ0BASF00W0NIMl1bQ0hdNGM1W2NIXVtjSF1jKEYpW2NIXWM1Rg==

>  <s_glide_docking_method>  (1) 
confgen

>  <s_i_glide_gridfile>  (1) 
gpcr_drd2_6luq_protein_autoprepared_prepared

>  <s_lp_Force_Field>  (1) 
S-OPLS

>  <s_lp_Variant>  (1) 
DiffSBDD_21_num_sample_100-1

>  <s_m_source_file>  (1) 
generated__ligand_DiffSBDD_2026-05-06_prepared.sdf

>  <GenAI_Model>  (1) 
DiffSBDD

>  <Protein>  (1) 
generic_title2

$$$$
DiffSBDD_79_num_sample_100
     RDKit          3D

  0  0  0  0  0  0  0  0  0  0999 V3000
M  V30 BEGIN CTAB
M  V30 COUNTS 55 58 0 0 1
M  V30 BEGIN ATOM
M  V30 1 C 5.078313 -1.103710 -17.527802 0
M  V30 2 C 6.658514 0.377428 -16.218111 0
M  V30 3 O 9.286108 1.249676 -17.091878 0
M  V30 4 C 10.315975 7.479548 -10.805498 0
M  V30 5 C 9.337529 6.611711 -10.496974 0
M  V30 6 C 8.639907 0.512061 -17.871676 0
M  V30 7 C 8.447625 2.998280 -12.952781 0
M  V30 8 C 8.341557 5.519489 -12.691428 0 CFG=1
M  V30 9 C 11.536553 7.770302 -10.012330 0
M  V30 10 C 9.227216 4.338717 -12.957671 0
M  V30 11 S 5.070416 -0.230706 -15.891726 0
M  V30 12 C 10.745800 7.227588 -7.679979 0
M  V30 13 C 9.276724 5.839777 -9.224147 0
M  V30 14 F 10.871487 7.526755 -6.374626 0
M  V30 15 C 7.360711 5.221797 -11.589035 0 CFG=1
M  V30 16 C 11.440725 7.964197 -8.546001 0
M  V30 17 C 8.230437 6.443403 -11.491664 0 CFG=1
M  V30 18 C 6.862422 0.450050 -12.867905 0
M  V30 19 O 8.992156 0.087083 -18.995000 0 CHG=-1
M  V30 20 C 6.405374 -0.794431 -18.326844 0
M  V30 21 C 9.873056 6.110943 -8.025044 0
M  V30 22 C 7.205628 0.063777 -17.381651 0
M  V30 23 C 5.877802 3.547133 -12.601187 0
M  V30 24 N 7.234713 1.148198 -15.206902 0
M  V30 25 O 12.234740 8.969270 -8.156148 0
M  V30 26 C 6.600652 1.521677 -13.944103 0 CFG=2
M  V30 27 C 5.987230 5.015054 -12.147359 0
M  V30 28 C 6.993702 2.971909 -13.532669 0 CFG=2
M  V30 29 H 4.200355 -0.806060 -18.100762 0
M  V30 30 H 4.992709 -2.174785 -17.341666 0
M  V30 31 H 10.251104 7.995874 -11.752070 0
M  V30 32 H 9.034834 2.263079 -13.491627 0
M  V30 33 H 8.464760 2.623630 -11.934941 0
M  V30 34 H 7.948559 5.949747 -13.611611 0
M  V30 35 H 11.981734 8.657363 -10.463877 0
M  V30 36 H 12.241563 6.969315 -10.201602 0
M  V30 37 H 9.702228 4.499290 -13.925773 0
M  V30 38 H 10.032680 4.306566 -12.223286 0
M  V30 39 H 8.626763 4.983193 -9.221774 0
M  V30 40 H 7.606659 4.437742 -10.881731 0
M  V30 41 H 7.716535 7.388363 -11.657922 0
M  V30 42 H 6.359305 0.684107 -11.930611 0
M  V30 43 H 6.489870 -0.522670 -13.191495 0
M  V30 44 H 7.924978 0.328285 -12.660237 0
M  V30 45 H 6.198814 -0.248761 -19.247838 0
M  V30 46 H 6.947186 -1.708199 -18.572647 0
M  V30 47 H 9.629602 5.437518 -7.217350 0
M  V30 48 H 4.911179 3.429753 -13.091665 0
M  V30 49 H 5.834854 2.934620 -11.700927 0
M  V30 50 H 12.686741 9.292701 -8.922035 0
M  V30 51 H 5.525306 1.537955 -14.091158 0
M  V30 52 H 5.794373 5.701380 -12.972823 0
M  V30 53 H 5.250012 5.231581 -11.373230 0
M  V30 54 H 6.983591 3.576903 -14.440453 0
M  V30 55 H 8.164204 1.520754 -15.374442 0
M  V30 END ATOM
M  V30 BEGIN BOND
M  V30 1 2 5 4
M  V30 2 2 6 3
M  V30 3 1 9 4
M  V30 4 1 10 7
M  V30 5 1 10 8
M  V30 6 1 11 1
M  V30 7 1 11 2
M  V30 8 1 13 5
M  V30 9 1 14 12
M  V30 10 1 15 8
M  V30 11 1 16 9
M  V30 12 2 16 12
M  V30 13 1 17 5
M  V30 14 1 17 8
M  V30 15 1 17 15
M  V30 16 1 19 6
M  V30 17 1 20 1
M  V30 18 1 21 12
M  V30 19 2 21 13
M  V30 20 2 22 2
M  V30 21 1 22 6
M  V30 22 1 22 20
M  V30 23 1 24 2
M  V30 24 1 25 16
M  V30 25 1 26 18
M  V30 26 1 26 24
M  V30 27 1 27 15
M  V30 28 1 27 23
M  V30 29 1 28 7
M  V30 30 1 28 23
M  V30 31 1 28 26
M  V30 32 1 29 1
M  V30 33 1 30 1
M  V30 34 1 31 4
M  V30 35 1 32 7
M  V30 36 1 33 7
M  V30 37 1 8 34 CFG=3
M  V30 38 1 35 9
M  V30 39 1 36 9
M  V30 40 1 37 10
M  V30 41 1 38 10
M  V30 42 1 39 13
M  V30 43 1 15 40 CFG=1
M  V30 44 1 17 41 CFG=3
M  V30 45 1 42 18
M  V30 46 1 43 18
M  V30 47 1 44 18
M  V30 48 1 45 20
M  V30 49 1 46 20
M  V30 50 1 47 21
M  V30 51 1 48 23
M  V30 52 1 49 23
M  V30 53 1 50 25
M  V30 54 1 26 51 CFG=3
M  V30 55 1 52 27
M  V30 56 1 53 27
M  V30 57 1 28 54 CFG=3
M  V30 58 1 55 24
M  V30 END BOND
M  V30 END CTAB
M  END
>  <i_epik_Tot_Q>  (1) 
-1

>  <i_epik_Tot_abs_Q>  (1) 
1

>  <i_i_glide_confnum>  (1) 
54

>  <i_i_glide_lignum>  (1) 
160

>  <i_i_glide_posenum>  (1) 
165

>  <i_i_glide_rotatable_bonds>  (1) 
6

>  <i_lp_mmshare_version>  (1) 
72125

>  <i_m_source_file_index>  (1) 
80

>  <i_f3d_flags>  (1) 
0

>  <num_sample>  (1) 
100

>  <b_lp_Chiralities_Consistent>  (1) 
1

>  <r_epik_Charging_Adjusted_Penalty>  (1) 
0.11080769427664984

>  <r_epik_Ionization_Penalty>  (1) 
0.11081096683628129

>  <r_epik_Ionization_Penalty_Charging>  (1) 
0.00049387447544676805

>  <r_epik_Ionization_Penalty_Neutral>  (1) 
0.11031709236083452

>  <r_epik_State_Penalty>  (1) 
0.11031381980120307

>  <r_glide_ring_energy>  (1) 
0

>  <r_i_docking_score>  (1) 
-4.9516795888111327

>  <r_i_glide_ecoul>  (1) 
0.11282563033634796

>  <r_i_glide_eff_state_penalty>  (1) 
0.11031381980120307

>  <r_i_glide_einternal>  (1) 
9.0092923519510535

>  <r_i_glide_emodel>  (1) 
-41.850604240258875

>  <r_i_glide_emodel_strain>  (1) 
1.5163503442588535

>  <r_i_glide_energy>  (1) 
-37.880102123999336

>  <r_i_glide_erotb>  (1) 
0.48016734467205424

>  <r_i_glide_esite>  (1) 
0

>  <r_i_glide_evdw>  (1) 
-37.992927754335682

>  <r_i_glide_gscore>  (1) 
-5.0619934086123362

>  <r_i_glide_gscore_strain>  (1) 
0

>  <r_i_glide_hbond>  (1) 
0

>  <r_i_glide_ligand_efficiency>  (1) 
-0.17684569960039759

>  <r_i_glide_ligand_efficiency_ln>  (1) 
-1.1429930367278243

>  <r_i_glide_ligand_efficiency_sa>  (1) 
-0.53700770113020369

>  <r_i_glide_lipo>  (1) 
-1.7915736642296705

>  <r_i_glide_metal>  (1) 
-0

>  <r_i_glide_rewards>  (1) 
-1.8678645458883874

>  <r_lp_Energy>  (1) 
42.621707000000001

>  <s_epik_cmdline>  (1) 
J2VwaWtfcHl0aG9uJywgJy1waHQnLCAnMS4wJywgJy1waCcsICc3LjQnLCAnLXRuJywgJzgnLCAnLW1hJywgJzUwMCcsICctaW1hZScsICc8aW5maWxlLm1hZT4nLCAnLW9tYWUnLCAnPG91dGZpbGUubWFlPic=

>  <s_epik_input>  (1) 
Tz1DKFtPSF0pW0NASF0xW0NIMl1bQ0gyXVMvQzE9Ti9bQ0BASF0oW0NIM10pW0NASF0oW0NIMl1bQ0gyXTIpW0NIMl1bQ0gyXVtDQEBIXShbQ0BIXTIzKVtDQEhdM0M0PVtDSF1bQ0gyXUMoW09IXSk9QyhGKVtDSF09W0NIXTQ=

>  <s_glide_docking_method>  (1) 
confgen

>  <s_i_glide_gridfile>  (1) 
gpcr_drd2_6luq_protein_autoprepared_prepared

>  <s_lp_Force_Field>  (1) 
S-OPLS

>  <s_lp_Variant>  (1) 
DiffSBDD_79_num_sample_100-1

>  <s_m_source_file>  (1) 
generated__ligand_DiffSBDD_2026-05-06_prepared.sdf

>  <GenAI_Model>  (1) 
DiffSBDD

>  <Protein>  (1) 
generic_title2

$$$$
DiffSBDD_9_num_sample_100
     RDKit          3D

  0  0  0  0  0  0  0  0  0  0999 V3000
M  V30 BEGIN CTAB
M  V30 COUNTS 39 39 0 0 1
M  V30 BEGIN ATOM
M  V30 1 C 9.212329 5.061196 -9.618444 0
M  V30 2 O 10.540302 6.566545 -11.891541 0
M  V30 3 O 8.182037 7.404555 -12.326858 0
M  V30 4 C 11.845702 6.983560 -3.553996 0
M  V30 5 C 6.210141 4.559171 -12.067416 0
M  V30 6 C 9.036499 4.023909 -17.070796 0
M  V30 7 C 9.067352 4.951558 -14.812906 0
M  V30 8 S 9.125488 6.285263 -12.185970 0
M  V30 9 C 12.519895 8.198111 -3.346435 0
M  V30 10 C 6.925840 5.139613 -10.844436 0
M  V30 11 C 9.103764 5.454741 -13.701534 0
M  V30 12 C 10.239056 6.465963 -7.707222 0
M  V30 13 C 11.034785 6.811153 -4.693439 0
M  V30 14 C 9.970732 7.701174 -6.830047 0
M  V30 15 C 10.885287 7.866915 -5.621130 0
M  V30 16 C 9.211669 6.386243 -8.846696 0
M  V30 17 F 11.976044 5.984807 -2.657548 0
M  V30 18 C 9.043008 4.486208 -15.940836 0
M  V30 19 C 12.385440 9.245138 -4.273553 0
M  V30 20 F 11.435295 10.103948 -6.291950 0
M  V30 21 C 11.567808 9.085861 -5.408862 0
M  V30 22 O 6.456613 3.369269 -12.357355 0
M  V30 23 O 5.434839 5.316336 -12.688152 0 CHG=-1
M  V30 24 C 8.464255 5.032354 -10.974554 0 CFG=2
M  V30 25 H 8.814346 4.293599 -8.958686 0
M  V30 26 H 10.234818 4.771243 -9.798426 0
M  V30 27 H 9.035261 3.615410 -18.055981 0
M  V30 28 H 13.144095 8.325597 -2.474546 0
M  V30 29 H 6.585329 4.575843 -9.978133 0
M  V30 30 H 6.611030 6.167484 -10.691430 0
M  V30 31 H 10.176105 5.560621 -7.106122 0
M  V30 32 H 11.247531 6.504981 -8.118370 0
M  V30 33 H 10.514678 5.877548 -4.846862 0
M  V30 34 H 10.002597 8.591695 -7.456955 0
M  V30 35 H 8.949122 7.654467 -6.447898 0
M  V30 36 H 9.343832 7.236958 -9.515178 0
M  V30 37 H 8.234864 6.490483 -8.392265 0
M  V30 38 H 12.907549 10.169001 -4.113460 0
M  V30 39 H 8.700976 4.055741 -11.401510 0
M  V30 END ATOM
M  V30 BEGIN BOND
M  V30 1 2 8 2
M  V30 2 2 8 3
M  V30 3 1 9 4
M  V30 4 1 10 5
M  V30 5 3 11 7
M  V30 6 1 11 8
M  V30 7 2 13 4
M  V30 8 1 14 12
M  V30 9 1 15 13
M  V30 10 1 15 14
M  V30 11 1 16 1
M  V30 12 1 16 12
M  V30 13 1 17 4
M  V30 14 3 18 6
M  V30 15 1 18 7
M  V30 16 2 19 9
M  V30 17 2 21 15
M  V30 18 1 21 19
M  V30 19 1 21 20
M  V30 20 2 22 5
M  V30 21 1 23 5
M  V30 22 1 24 1
M  V30 23 1 24 8
M  V30 24 1 24 10
M  V30 25 1 25 1
M  V30 26 1 26 1
M  V30 27 1 27 6
M  V30 28 1 28 9
M  V30 29 1 29 10
M  V30 30 1 30 10
M  V30 31 1 31 12
M  V30 32 1 32 12
M  V30 33 1 33 13
M  V30 34 1 34 14
M  V30 35 1 35 14
M  V30 36 1 36 16
M  V30 37 1 37 16
M  V30 38 1 38 19
M  V30 39 1 24 39 CFG=3
M  V30 END BOND
M  V30 END CTAB
M  END
>  <i_epik_Tot_Q>  (1) 
-1

>  <i_epik_Tot_abs_Q>  (1) 
1

>  <i_i_glide_confnum>  (1) 
19

>  <i_i_glide_lignum>  (1) 
15

>  <i_i_glide_posenum>  (1) 
251

>  <i_i_glide_rotatable_bonds>  (1) 
10

>  <i_lp_mmshare_version>  (1) 
72125

>  <i_m_source_file_index>  (1) 
10

>  <i_f3d_flags>  (1) 
0

>  <num_sample>  (1) 
100

>  <b_lp_Chiralities_Consistent>  (1) 
1

>  <r_epik_Charging_Adjusted_Penalty>  (1) 
0.0001073779662715613

>  <r_epik_Ionization_Penalty>  (1) 
0.0001073779662715613

>  <r_epik_Ionization_Penalty_Charging>  (1) 
0.0001073779662715613

>  <r_epik_Ionization_Penalty_Neutral>  (1) 
0

>  <r_epik_State_Penalty>  (1) 
-0

>  <r_glide_ring_energy>  (1) 
0

>  <r_i_docking_score>  (1) 
-4.949930117896737

>  <r_i_glide_ecoul>  (1) 
-1.2561336970911858

>  <r_i_glide_eff_state_penalty>  (1) 
-0

>  <r_i_glide_einternal>  (1) 
8.2766050962958673

>  <r_i_glide_emodel>  (1) 
-35.649077205599866

>  <r_i_glide_emodel_strain>  (1) 
0.087448842794294102

>  <r_i_glide_energy>  (1) 
-31.179159693264225

>  <r_i_glide_erotb>  (1) 
1.2234298802473262

>  <r_i_glide_esite>  (1) 
-0.060990817736125774

>  <r_i_glide_evdw>  (1) 
-29.923025996173038

>  <r_i_glide_gscore>  (1) 
-4.949930117896737

>  <r_i_glide_gscore_strain>  (1) 
0

>  <r_i_glide_hbond>  (1) 
0

>  <r_i_glide_ligand_efficiency>  (1) 
-0.20624708824569737

>  <r_i_glide_ligand_efficiency_ln>  (1) 
-1.1847454147053222

>  <r_i_glide_ligand_efficiency_sa>  (1) 
-0.59491954879902231

>  <r_i_glide_lipo>  (1) 
-2.1951991046125929

>  <r_i_glide_metal>  (1) 
-0

>  <r_i_glide_rewards>  (1) 
-2.2325987214230141

>  <r_lp_Energy>  (1) 
9.3765809999999998

>  <r_lp_tautomer_probability>  (1) 
1

>  <s_epik_cmdline>  (1) 
J2VwaWtfcHl0aG9uJywgJy1waHQnLCAnMS4wJywgJy1waCcsICc3LjQnLCAnLXRuJywgJzgnLCAnLW1hJywgJzUwMCcsICctaW1hZScsICc8aW5maWxlLm1hZT4nLCAnLW9tYWUnLCAnPG91dGZpbGUubWFlPic=

>  <s_epik_input>  (1) 
W0NIXSNDQyNDUyg9TykoPU8pW0NASF0oW0NIMl1DKD1PKVtPSF0pW0NIMl1bQ0gyXVtDSDJdW0NIMl1jKFtjSF0xKWMoRilbY0hdW2NIXWMxRg==

>  <s_glide_docking_method>  (1) 
confgen

>  <s_i_glide_gridfile>  (1) 
gpcr_drd2_6luq_protein_autoprepared_prepared

>  <s_lp_Force_Field>  (1) 
S-OPLS

>  <s_lp_Variant>  (1) 
DiffSBDD_9_num_sample_100-1

>  <s_m_source_file>  (1) 
generated__ligand_DiffSBDD_2026-05-06_prepared.sdf

>  <GenAI_Model>  (1) 
DiffSBDD

>  <Protein>  (1) 
generic_title2

$$$$
DiffSBDD_77_num_sample_100
     RDKit          3D

  0  0  0  0  0  0  0  0  0  0999 V3000
M  V30 BEGIN CTAB
M  V30 COUNTS 44 46 0 0 1
M  V30 BEGIN ATOM
M  V30 1 C 7.238200 4.917979 -12.080228 0
M  V30 2 C 9.715164 6.911606 -10.125486 0 CFG=1
M  V30 3 N 9.834830 7.476168 -8.780296 0
M  V30 4 S 7.834717 2.474186 -13.264615 0
M  V30 5 C 8.798095 5.697491 -10.167062 0 CFG=1
M  V30 6 C 8.595494 5.526635 -11.669655 0 CFG=2
M  V30 7 O 4.715258 5.904045 -17.898691 0
M  V30 8 C 10.995436 7.910439 -8.264868 0
M  V30 9 C 5.939983 6.503870 -18.062360 0 CFG=1
M  V30 10 C 4.004729 6.718540 -16.982318 0
M  V30 11 O 8.719165 6.845405 -12.198408 0
M  V30 12 N 9.034922 7.741401 -11.097313 0
M  V30 13 C 5.082306 7.620438 -16.361201 0 CFG=2
M  V30 14 C 6.318982 1.588244 -12.808209 0
M  V30 15 C 7.225716 4.176577 -13.438659 0 CFG=2
M  V30 16 F 5.412519 6.838610 -14.153401 0
M  V30 17 O 5.834836 7.769296 -17.530113 0
M  V30 18 O 12.040607 7.835501 -8.950407 0 CHG=-1
M  V30 19 S 8.027909 5.125419 -14.769269 0
M  V30 20 O 9.434842 4.569363 -9.625185 0
M  V30 21 C 6.625792 5.681107 -15.782464 0 CFG=2
M  V30 22 C 7.004572 5.712612 -17.273363 0
M  V30 23 C 6.047823 7.021941 -15.307566 0
M  V30 24 O 10.998955 8.381301 -7.107396 0
M  V30 25 F 7.033934 7.897386 -15.091632 0
M  V30 26 H 6.910907 4.219280 -11.309962 0
M  V30 27 H 6.487801 5.709014 -12.080113 0
M  V30 28 H 10.682209 6.646982 -10.550447 0
M  V30 29 H 8.994445 7.541504 -8.222065 0
M  V30 30 H 7.848620 5.849768 -9.655037 0
M  V30 31 H 9.417548 4.934931 -12.078355 0
M  V30 32 H 6.190413 6.566342 -19.121490 0
M  V30 33 H 3.300962 7.329373 -17.550137 0
M  V30 34 H 3.421214 6.124673 -16.291667 0
M  V30 35 H 8.125726 7.959104 -10.679144 0
M  V30 36 H 4.674934 8.569624 -16.017205 0
M  V30 37 H 6.538785 0.532162 -12.651352 0
M  V30 38 H 5.900295 1.992694 -11.889098 0
M  V30 39 H 5.570443 1.668492 -13.596179 0
M  V30 40 H 6.181440 4.062661 -13.722312 0
M  V30 41 H 8.936370 3.801798 -9.859865 0
M  V30 42 H 5.834818 4.955484 -15.675602 0
M  V30 43 H 7.977996 6.169407 -17.433899 0
M  V30 44 H 7.060480 4.699321 -17.672499 0
M  V30 END ATOM
M  V30 BEGIN BOND
M  V30 1 1 3 2
M  V30 2 1 5 2
M  V30 3 1 6 1
M  V30 4 1 6 5
M  V30 5 1 8 3
M  V30 6 1 9 7
M  V30 7 1 10 7
M  V30 8 1 11 6
M  V30 9 1 12 2
M  V30 10 1 12 11
M  V30 11 1 13 10
M  V30 12 1 14 4
M  V30 13 1 15 1
M  V30 14 1 15 4
M  V30 15 1 17 9
M  V30 16 1 17 13
M  V30 17 1 18 8
M  V30 18 1 19 15
M  V30 19 1 20 5
M  V30 20 1 21 19
M  V30 21 1 22 9
M  V30 22 1 22 21
M  V30 23 1 23 13
M  V30 24 1 23 16
M  V30 25 1 23 21
M  V30 26 2 24 8
M  V30 27 1 25 23
M  V30 28 1 26 1
M  V30 29 1 27 1
M  V30 30 1 2 28 CFG=3
M  V30 31 1 29 3
M  V30 32 1 5 30 CFG=1
M  V30 33 1 6 31 CFG=3
M  V30 34 1 9 32 CFG=3
M  V30 35 1 33 10
M  V30 36 1 34 10
M  V30 37 1 35 12
M  V30 38 1 13 36 CFG=1
M  V30 39 1 37 14
M  V30 40 1 38 14
M  V30 41 1 39 14
M  V30 42 1 15 40 CFG=3
M  V30 43 1 41 20
M  V30 44 1 21 42 CFG=3
M  V30 45 1 43 22
M  V30 46 1 44 22
M  V30 END BOND
M  V30 END CTAB
M  END
>  <i_epik_Tot_Q>  (1) 
-1

>  <i_epik_Tot_abs_Q>  (1) 
1

>  <i_i_glide_confnum>  (1) 
163

>  <i_i_glide_lignum>  (1) 
158

>  <i_i_glide_posenum>  (1) 
205

>  <i_i_glide_rotatable_bonds>  (1) 
8

>  <i_lp_mmshare_version>  (1) 
72125

>  <i_m_source_file_index>  (1) 
78

>  <i_f3d_flags>  (1) 
0

>  <num_sample>  (1) 
100

>  <b_lp_Chiralities_Consistent>  (1) 
1

>  <r_epik_Charging_Adjusted_Penalty>  (1) 
0.0018659666509244193

>  <r_epik_Ionization_Penalty>  (1) 
0.0021781486112202567

>  <r_epik_Ionization_Penalty_Charging>  (1) 
0.0018659666509244193

>  <r_epik_Ionization_Penalty_Neutral>  (1) 
0.00031218196029583734

>  <r_epik_State_Penalty>  (1) 
-0

>  <r_glide_ring_energy>  (1) 
0.18076742027696574

>  <r_i_docking_score>  (1) 
-4.938727767151649

>  <r_i_glide_ecoul>  (1) 
-5.2939761192187555

>  <r_i_glide_eff_state_penalty>  (1) 
-0

>  <r_i_glide_einternal>  (1) 
4.8043391131928015

>  <r_i_glide_emodel>  (1) 
-33.49050443120975

>  <r_i_glide_emodel_strain>  (1) 
1.4722337177664855

>  <r_i_glide_energy>  (1) 
-28.91837599083561

>  <r_i_glide_erotb>  (1) 
0.48685992460838567

>  <r_i_glide_esite>  (1) 
-0.3176245928002559

>  <r_i_glide_evdw>  (1) 
-23.624399871616856

>  <r_i_glide_gscore>  (1) 
-4.938727767151649

>  <r_i_glide_gscore_strain>  (1) 
0

>  <r_i_glide_hbond>  (1) 
-0.16916051762272941

>  <r_i_glide_ligand_efficiency>  (1) 
-0.19754911068606595

>  <r_i_glide_ligand_efficiency_ln>  (1) 
-1.1706264825431159

>  <r_i_glide_ligand_efficiency_sa>  (1) 
-0.57763710381423372

>  <r_i_glide_lipo>  (1) 
-1.7265526294488247

>  <r_i_glide_metal>  (1) 
-0

>  <r_i_glide_rewards>  (1) 
-1.2369335404245678

>  <r_lp_Energy>  (1) 
-9.4210519999999995

>  <r_lp_tautomer_probability>  (1) 
1

>  <s_epik_Chemistry_Notes>  (1) 
This compound contains an acetal/aminal-like group ( X-CH(R)-Y where X, Y are N, S, or O) that may be acid/base labile, releasing an aldehyde. This compound has a N-S or N-O group and may undergo hydrolysis at high or low pH.

>  <s_epik_cmdline>  (1) 
J2VwaWtfcHl0aG9uJywgJy1waHQnLCAnMS4wJywgJy1waCcsICc3LjQnLCAnLXRuJywgJzgnLCAnLW1hJywgJzUwMCcsICctaW1hZScsICc8aW5maWxlLm1hZT4nLCAnLW9tYWUnLCAnPG91dGZpbGUubWFlPic=

>  <s_epik_input>  (1) 
W09IXUMoPU8pW05IXVtDQEhdMVtDQEhdKFtPSF0pW0NASF0oT1tOSF0xKVtDSDJdW0NASF0oU1tDSDNdKVNbQ0BIXShbQ0gyXTIpQyhGKShGKVtDQEBIXShPMylbQ0gyXU9bQ0BIXTIz

>  <s_glide_docking_method>  (1) 
confgen

>  <s_i_glide_gridfile>  (1) 
gpcr_drd2_6luq_protein_autoprepared_prepared

>  <s_lp_Force_Field>  (1) 
S-OPLS

>  <s_lp_Variant>  (1) 
DiffSBDD_77_num_sample_100-1

>  <s_m_source_file>  (1) 
generated__ligand_DiffSBDD_2026-05-06_prepared.sdf

>  <GenAI_Model>  (1) 
DiffSBDD

>  <Protein>  (1) 
generic_title2

$$$$
DiffSBDD_27_num_sample_100
     RDKit          3D

  0  0  0  0  0  0  0  0  0  0999 V3000
M  V30 BEGIN CTAB
M  V30 COUNTS 57 57 0 0 1
M  V30 BEGIN ATOM
M  V30 1 C 10.176329 6.117931 -19.322900 0 CFG=2
M  V30 2 C 7.591061 5.306432 -13.309981 0
M  V30 3 N 10.377937 4.703403 -19.643233 0
M  V30 4 C 9.329846 8.363661 -7.253345 0
M  V30 5 C 9.278975 7.576200 -20.960605 0
M  V30 6 C 7.307550 4.967651 -15.793729 0
M  V30 7 N 6.568381 7.028803 -11.892170 0 CHG=1
M  V30 8 C 9.880963 6.738921 -10.697376 0
M  V30 9 C 10.083047 7.483300 -8.269517 0
M  V30 10 C 10.018787 6.028165 -7.759396 0
M  V30 11 C 7.735673 6.143253 -12.051263 0 CFG=2
M  V30 12 C 9.076595 6.920411 -12.000867 0
M  V30 13 C 8.660942 6.426080 -19.035648 0
M  V30 14 C 9.628297 4.986009 -16.593275 0
M  V30 15 C 10.542312 7.024766 -20.568030 0
M  V30 16 O 11.641905 7.201790 -21.087343 0
M  V30 17 C 7.830421 6.102688 -17.995596 0
M  V30 18 N 9.434842 7.635401 -9.604088 0 CHG=1
M  V30 19 N 8.242123 5.367881 -16.849126 0
M  V30 20 C 8.306489 7.252637 -20.152858 0
M  V30 21 C 6.362764 6.544831 -17.971630 0
M  V30 22 C 11.546689 7.964691 -8.342520 0
M  V30 23 C 7.444301 5.815987 -14.545256 0
M  V30 24 H 10.809145 6.413111 -18.489475 0
M  V30 25 H 7.614134 4.233156 -13.178024 0
M  V30 26 H 9.870460 4.437908 -20.475466 0
M  V30 27 H 10.048987 4.100870 -18.904030 0
M  V30 28 H 9.157104 9.369249 -7.628683 0
M  V30 29 H 8.354869 7.948666 -7.002350 0
M  V30 30 H 9.878010 8.449980 -6.314383 0
M  V30 31 H 9.172278 8.190369 -21.842559 0
M  V30 32 H 6.267438 4.969250 -16.110823 0
M  V30 33 H 7.510508 3.926821 -15.536807 0
M  V30 34 H 5.715725 6.493446 -11.966794 0
M  V30 35 H 6.619091 7.427810 -10.944910 0
M  V30 36 H 9.834791 5.693045 -10.396296 0
M  V30 37 H 10.925625 6.969052 -10.907446 0
M  V30 38 H 10.634763 5.349097 -8.345493 0
M  V30 39 H 10.379864 5.960019 -6.732268 0
M  V30 40 H 8.996619 5.646078 -7.767145 0
M  V30 41 H 7.694885 5.434332 -11.222751 0
M  V30 42 H 9.717139 6.536177 -12.796463 0
M  V30 43 H 8.941554 7.976936 -12.238182 0
M  V30 44 H 9.962288 4.189673 -17.252351 0
M  V30 45 H 10.296129 5.842803 -16.645708 0
M  V30 46 H 9.737892 4.595635 -15.580737 0
M  V30 47 H 9.593875 8.586723 -9.897157 0
M  V30 48 H 7.298037 7.590490 -20.324369 0
M  V30 49 H 6.139545 7.369198 -18.641764 0
M  V30 50 H 5.712855 5.713865 -18.248108 0
M  V30 51 H 6.067876 6.915145 -16.990203 0
M  V30 52 H 11.610236 9.003484 -8.669251 0
M  V30 53 H 12.031015 7.902087 -7.367326 0
M  V30 54 H 12.146225 7.369303 -9.029643 0
M  V30 55 H 7.419734 6.887204 -14.685002 0
M  V30 56 H 8.417227 7.549274 -9.487988 0
M  V30 57 H 6.571764 7.767611 -12.578856 0
M  V30 END ATOM
M  V30 BEGIN BOND
M  V30 1 1 3 1
M  V30 2 1 9 4
M  V30 3 1 10 9
M  V30 4 1 11 2
M  V30 5 1 11 7
M  V30 6 1 12 8
M  V30 7 1 12 11
M  V30 8 1 13 1
M  V30 9 1 15 1
M  V30 10 1 15 5
M  V30 11 2 16 15
M  V30 12 2 17 13
M  V30 13 1 18 8
M  V30 14 1 18 9
M  V30 15 1 19 6
M  V30 16 1 19 14
M  V30 17 1 19 17
M  V30 18 2 20 5
M  V30 19 1 20 13
M  V30 20 1 21 17
M  V30 21 1 22 9
M  V30 22 2 23 2
M  V30 23 1 23 6
M  V30 24 1 1 24 CFG=1
M  V30 25 1 25 2
M  V30 26 1 26 3
M  V30 27 1 27 3
M  V30 28 1 28 4
M  V30 29 1 29 4
M  V30 30 1 30 4
M  V30 31 1 31 5
M  V30 32 1 32 6
M  V30 33 1 33 6
M  V30 34 1 34 7
M  V30 35 1 35 7
M  V30 36 1 36 8
M  V30 37 1 37 8
M  V30 38 1 38 10
M  V30 39 1 39 10
M  V30 40 1 40 10
M  V30 41 1 11 41 CFG=1
M  V30 42 1 42 12
M  V30 43 1 43 12
M  V30 44 1 44 14
M  V30 45 1 45 14
M  V30 46 1 46 14
M  V30 47 1 47 18
M  V30 48 1 48 20
M  V30 49 1 49 21
M  V30 50 1 50 21
M  V30 51 1 51 21
M  V30 52 1 52 22
M  V30 53 1 53 22
M  V30 54 1 54 22
M  V30 55 1 55 23
M  V30 56 1 56 18
M  V30 57 1 57 7
M  V30 END BOND
M  V30 END CTAB
M  END
>  <i_epik_Tot_Q>  (1) 
2

>  <i_epik_Tot_abs_Q>  (1) 
2

>  <i_i_glide_confnum>  (1) 
241

>  <i_i_glide_lignum>  (1) 
45

>  <i_i_glide_posenum>  (1) 
77

>  <i_i_glide_rotatable_bonds>  (1) 
8

>  <i_lp_mmshare_version>  (1) 
72125

>  <i_m_source_file_index>  (1) 
28

>  <i_f3d_flags>  (1) 
0

>  <num_sample>  (1) 
100

>  <b_lp_Chiralities_Consistent>  (1) 
1

>  <r_epik_Charging_Adjusted_Penalty>  (1) 
0.47954930221194114

>  <r_epik_Ionization_Penalty>  (1) 
0.082650424812652987

>  <r_epik_Ionization_Penalty_Charging>  (1) 
0.068869463259337155

>  <r_epik_Ionization_Penalty_Neutral>  (1) 
0.013780961553315832

>  <r_epik_State_Penalty>  (1) 
0.41067983895260396

>  <r_glide_ring_energy>  (1) 
0

>  <r_i_docking_score>  (1) 
-4.9370817964982407

>  <r_i_glide_ecoul>  (1) 
-12.53185947070293

>  <r_i_glide_eff_state_penalty>  (1) 
0.41067983895260396

>  <r_i_glide_einternal>  (1) 
9.1846232352566393

>  <r_i_glide_emodel>  (1) 
-47.922408464527756

>  <r_i_glide_emodel_strain>  (1) 
1.3821629928614243

>  <r_i_glide_energy>  (1) 
-33.028422807991561

>  <r_i_glide_erotb>  (1) 
1.2586724494590871

>  <r_i_glide_esite>  (1) 
-0.20000000000000001

>  <r_i_glide_evdw>  (1) 
-20.496563337288627

>  <r_i_glide_gscore>  (1) 
-5.347761635450845

>  <r_i_glide_gscore_strain>  (1) 
0

>  <r_i_glide_hbond>  (1) 
-0.38856532442959091

>  <r_i_glide_ligand_efficiency>  (1) 
-0.21465573028253221

>  <r_i_glide_ligand_efficiency_ln>  (1) 
-1.1938311453759325

>  <r_i_glide_ligand_efficiency_sa>  (1) 
-0.61045234338641707

>  <r_i_glide_lipo>  (1) 
-1.2305173093616084

>  <r_i_glide_metal>  (1) 
-0

>  <r_i_glide_rewards>  (1) 
-1.8827443636488621

>  <r_lp_Energy>  (1) 
26.442719

>  <r_lp_tautomer_probability>  (1) 
0.5

>  <s_epik_cmdline>  (1) 
J2VwaWtfcHl0aG9uJywgJy1waHQnLCAnMS4wJywgJy1waCcsICc3LjQnLCAnLXRuJywgJzgnLCAnLW1hJywgJzUwMCcsICctaW1hZScsICc8aW5maWxlLm1hZT4nLCAnLW9tYWUnLCAnPG91dGZpbGUubWFlPic=

>  <s_epik_input>  (1) 
Tz1DMVtDSF09W0NIXUMoXFtDQEhdMVtOSDJdKT1DKFtDSDNdKVxOKFtDSDNdKVtDSDJdXFtDSF09W0NIXVxbQ0BIXShbTkgyXSlbQ0gyXVtDSDJdW05IXUMoW0NIM10pKFtDSDNdKVtDSDNd

>  <s_glide_docking_method>  (1) 
confgen

>  <s_i_glide_gridfile>  (1) 
gpcr_drd2_6luq_protein_autoprepared_prepared

>  <s_lp_Force_Field>  (1) 
S-OPLS

>  <s_lp_Variant>  (1) 
DiffSBDD_27_num_sample_100-3

>  <s_m_source_file>  (1) 
generated__ligand_DiffSBDD_2026-05-06_prepared.sdf

>  <GenAI_Model>  (1) 
DiffSBDD

>  <Protein>  (1) 
generic_title2

$$$$
DiffSBDD_17_num_sample_100
     RDKit          3D

  0  0  0  0  0  0  0  0  0  0999 V3000
M  V30 BEGIN CTAB
M  V30 COUNTS 55 57 0 0 1
M  V30 BEGIN ATOM
M  V30 1 N 7.413159 5.718008 -15.225024 0
M  V30 2 C 6.791826 4.519492 -12.234600 0
M  V30 3 C 12.238121 9.135941 -6.888817 0
M  V30 4 C 9.186575 6.058987 -8.715182 0
M  V30 5 C 9.804745 6.556406 -9.911117 0
M  V30 6 C 6.035820 5.690357 -18.821404 0
M  V30 7 N 12.117198 8.969304 -8.361713 0
M  V30 8 C 5.006134 6.818952 -18.631752 0
M  V30 9 C 10.622595 7.550256 -7.438165 0
M  V30 10 F 3.437238 7.691764 -17.094744 0
M  V30 11 N 7.638662 4.935987 -11.132360 0
M  V30 12 C 5.484814 6.978037 -16.166653 0
M  V30 13 C 6.869714 5.419100 -17.578314 0
M  V30 14 C 11.181383 8.012911 -8.564792 0
M  V30 15 O 7.914427 3.443519 -15.349846 0
M  V30 16 C 6.212650 5.721974 -13.010654 0 CFG=2
M  V30 17 C 6.635139 5.990870 -16.372754 0
M  V30 18 C 7.238682 6.405099 -13.944035 0
M  V30 19 C 7.434311 4.569328 -9.819414 0
M  V30 20 C 5.586103 6.761144 -12.064546 0
M  V30 21 C 9.624482 6.567637 -7.465143 0
M  V30 22 C 11.157033 8.157769 -6.184700 0
M  V30 23 N 8.470958 4.792655 -15.355276 0
M  V30 24 C 10.813097 7.536302 -9.822869 0
M  V30 25 C 4.392978 6.774204 -17.227289 0 CFG=2
M  V30 26 C 8.089573 5.042252 -8.731311 0
M  V30 27 H 5.968855 3.920351 -11.842475 0
M  V30 28 H 7.362589 3.861280 -12.885969 0
M  V30 29 H 12.003622 10.171225 -6.640166 0
M  V30 30 H 13.264667 8.969307 -6.574222 0
M  V30 31 H 9.520632 6.197042 -10.873963 0
M  V30 32 H 6.697056 5.924561 -19.656005 0
M  V30 33 H 5.521873 4.763261 -19.077516 0
M  V30 34 H 12.940654 8.986771 -8.948986 0
M  V30 35 H 5.489043 7.785492 -18.779652 0
M  V30 36 H 4.234850 6.744065 -19.396301 0
M  V30 37 H 5.034842 6.892036 -15.182915 0
M  V30 38 H 5.884844 7.990033 -16.245587 0
M  V30 39 H 7.685023 4.721097 -17.696632 0
M  V30 40 H 7.031414 3.610225 -15.057433 0
M  V30 41 H 5.401455 5.330235 -13.624692 0
M  V30 42 H 8.203324 6.473993 -13.440041 0
M  V30 43 H 6.957158 7.441590 -14.129482 0
M  V30 44 H 6.651940 3.831326 -9.707214 0
M  V30 45 H 6.349996 7.285079 -11.491754 0
M  V30 46 H 5.034844 7.518976 -12.619619 0
M  V30 47 H 4.906030 6.297068 -11.350391 0
M  V30 48 H 9.182378 6.213157 -6.545205 0
M  V30 49 H 10.380875 8.703799 -5.647857 0
M  V30 50 H 11.610447 7.406711 -5.538253 0
M  V30 51 H 9.006139 4.763974 -14.488438 0
M  V30 52 H 11.282573 7.921301 -10.715129 0
M  V30 53 H 3.904023 5.813762 -17.068021 0
M  V30 54 H 7.797087 4.661624 -7.765042 0
M  V30 55 H 8.292372 5.676940 -11.324019 0
M  V30 END ATOM
M  V30 BEGIN BOND
M  V30 1 1 5 4
M  V30 2 1 7 3
M  V30 3 1 8 6
M  V30 4 1 11 2
M  V30 5 1 13 6
M  V30 6 1 14 7
M  V30 7 2 14 9
M  V30 8 1 16 2
M  V30 9 1 17 1
M  V30 10 1 17 12
M  V30 11 2 17 13
M  V30 12 1 18 1
M  V30 13 1 18 16
M  V30 14 1 19 11
M  V30 15 1 20 16
M  V30 16 2 21 4
M  V30 17 1 21 9
M  V30 18 1 22 3
M  V30 19 1 22 9
M  V30 20 1 23 1
M  V30 21 1 23 15
M  V30 22 2 24 5
M  V30 23 1 24 14
M  V30 24 1 25 8
M  V30 25 1 25 10
M  V30 26 1 25 12
M  V30 27 1 26 4
M  V30 28 2 26 19
M  V30 29 1 27 2
M  V30 30 1 28 2
M  V30 31 1 29 3
M  V30 32 1 30 3
M  V30 33 1 31 5
M  V30 34 1 32 6
M  V30 35 1 33 6
M  V30 36 1 34 7
M  V30 37 1 35 8
M  V30 38 1 36 8
M  V30 39 1 37 12
M  V30 40 1 38 12
M  V30 41 1 39 13
M  V30 42 1 40 15
M  V30 43 1 16 41 CFG=3
M  V30 44 1 42 18
M  V30 45 1 43 18
M  V30 46 1 44 19
M  V30 47 1 45 20
M  V30 48 1 46 20
M  V30 49 1 47 20
M  V30 50 1 48 21
M  V30 51 1 49 22
M  V30 52 1 50 22
M  V30 53 1 51 23
M  V30 54 1 52 24
M  V30 55 1 25 53 CFG=1
M  V30 56 1 54 26
M  V30 57 1 55 11
M  V30 END BOND
M  V30 END CTAB
M  END
>  <i_epik_Tot_Q>  (1) 
0

>  <i_epik_Tot_abs_Q>  (1) 
0

>  <i_i_glide_confnum>  (1) 
299

>  <i_i_glide_lignum>  (1) 
28

>  <i_i_glide_posenum>  (1) 
38

>  <i_i_glide_rotatable_bonds>  (1) 
9

>  <i_lp_mmshare_version>  (1) 
72125

>  <i_m_source_file_index>  (1) 
18

>  <i_f3d_flags>  (1) 
0

>  <num_sample>  (1) 
100

>  <b_lp_Chiralities_Consistent>  (1) 
1

>  <r_epik_Charging_Adjusted_Penalty>  (1) 
0

>  <r_epik_Ionization_Penalty>  (1) 
0.026997388265497368

>  <r_epik_Ionization_Penalty_Charging>  (1) 
0

>  <r_epik_Ionization_Penalty_Neutral>  (1) 
0.026997388265497368

>  <r_epik_State_Penalty>  (1) 
-0

>  <r_glide_ring_energy>  (1) 
0

>  <r_i_docking_score>  (1) 
-4.9264920439354194

>  <r_i_glide_ecoul>  (1) 
0.26236083105774399

>  <r_i_glide_eff_state_penalty>  (1) 
-0

>  <r_i_glide_einternal>  (1) 
10.174493233469526

>  <r_i_glide_emodel>  (1) 
-39.993591596385855

>  <r_i_glide_emodel_strain>  (1) 
0.15301279749975549

>  <r_i_glide_energy>  (1) 
-34.318748536605824

>  <r_i_glide_erotb>  (1) 
0.88558064458011865

>  <r_i_glide_esite>  (1) 
-0.027815395348767199

>  <r_i_glide_evdw>  (1) 
-34.581109367663565

>  <r_i_glide_gscore>  (1) 
-4.9264920439354194

>  <r_i_glide_gscore_strain>  (1) 
0

>  <r_i_glide_hbond>  (1) 
0

>  <r_i_glide_ligand_efficiency>  (1) 
-0.18948046322828535

>  <r_i_glide_ligand_efficiency_ln>  (1) 
-1.1569704913793493

>  <r_i_glide_ligand_efficiency_sa>  (1) 
-0.56133512735380287

>  <r_i_glide_lipo>  (1) 
-2.1762919628976145

>  <r_i_glide_metal>  (1) 
-0

>  <r_i_glide_rewards>  (1) 
-1.9182639865446396

>  <r_lp_Energy>  (1) 
11.300393999999999

>  <r_lp_tautomer_probability>  (1) 
1

>  <s_epik_Chemistry_Notes>  (1) 
This compound has a N-S or N-O group and may undergo hydrolysis at high or low pH.

>  <s_epik_cmdline>  (1) 
J2VwaWtfcHl0aG9uJywgJy1waHQnLCAnMS4wJywgJy1waCcsICc3LjQnLCAnLXRuJywgJzgnLCAnLW1hJywgJzUwMCcsICctaW1hZScsICc8aW5maWxlLm1hZT4nLCAnLW9tYWUnLCAnPG91dGZpbGUubWFlPic=

>  <s_epik_input>  (1) 
RltDQEhdKFtDSDJdMSlbQ0gyXVtDSDJdW0NIXT1DMU4oW05IXVtPSF0pW0NIMl1bQ0BIXShbQ0gzXSlbQ0gyXVtOSF0vW0NIXT1bQ0hdXGMoW2NIXTIpW2NIXVtjSF1jKGMyMylbTkhdW0NIMl1bQ0gyXTM=

>  <s_glide_docking_method>  (1) 
confgen

>  <s_i_glide_gridfile>  (1) 
gpcr_drd2_6luq_protein_autoprepared_prepared

>  <s_lp_Force_Field>  (1) 
S-OPLS

>  <s_lp_Variant>  (1) 
DiffSBDD_17_num_sample_100-1

>  <s_m_source_file>  (1) 
generated__ligand_DiffSBDD_2026-05-06_prepared.sdf

>  <GenAI_Model>  (1) 
DiffSBDD

>  <Protein>  (1) 
generic_title2

$$$$
DiffSBDD_57_num_sample_100
     RDKit          3D

  0  0  0  0  0  0  0  0  0  0999 V3000
M  V30 BEGIN CTAB
M  V30 COUNTS 57 57 0 0 1
M  V30 BEGIN ATOM
M  V30 1 O 7.034911 3.593592 -15.411316 0 CHG=-1
M  V30 2 C 12.307220 8.120014 -3.891628 0 CFG=2
M  V30 3 O 6.937167 6.866689 -11.891657 0
M  V30 4 C 9.583975 8.168172 -11.148064 0
M  V30 5 C 11.498986 6.591491 -2.010339 0
M  V30 6 O 8.790070 5.366775 -14.960264 0
M  V30 7 C 9.142257 5.790974 -11.950676 0 CFG=2
M  V30 8 C 11.434858 7.304822 -4.876905 0
M  V30 9 C 9.835927 6.674472 -10.891208 0 CFG=2
M  V30 10 C 9.596372 6.254017 -9.414969 0
M  V30 11 C 10.905693 7.799593 -6.009232 0
M  V30 12 C 11.862001 8.026879 -2.420196 0 CFG=1
M  V30 13 C 7.606295 5.620940 -11.856007 0 CFG=2
M  V30 14 C 11.123989 9.244783 -6.429414 0
M  V30 15 P 7.424909 4.849493 -14.737283 0
M  V30 16 O 9.720586 4.506971 -11.891690 0
M  V30 17 C 12.386319 9.833772 -5.807281 0
M  V30 18 C 6.990648 4.648206 -12.897219 0
M  V30 19 C 6.233223 6.185042 -15.275661 0
M  V30 20 C 10.313463 7.189629 -8.428457 0
M  V30 21 C 10.042185 6.943995 -6.937909 0
M  V30 22 N 12.890151 8.569206 -1.512224 0 CHG=1
M  V30 23 C 12.417408 9.606511 -4.298611 0
M  V30 24 F 12.623946 5.884140 -1.891790 0
M  V30 25 H 13.301443 7.675664 -3.891692 0
M  V30 26 H 7.020813 7.267868 -11.017783 0
M  V30 27 H 8.637317 8.516536 -10.729764 0
M  V30 28 H 10.392639 8.731727 -10.689513 0
M  V30 29 H 9.590014 8.414254 -12.210394 0
M  V30 30 H 10.943939 6.569905 -1.091669 0
M  V30 31 H 10.831862 6.064973 -2.684227 0
M  V30 32 H 9.415206 6.228152 -12.904384 0
M  V30 33 H 11.259478 6.271881 -4.631306 0
M  V30 34 H 10.902776 6.569288 -11.083324 0
M  V30 35 H 8.533477 6.244112 -9.185986 0
M  V30 36 H 9.941894 5.233147 -9.254579 0
M  V30 37 H 11.034852 8.700959 -2.252647 0
M  V30 38 H 7.368913 5.201006 -10.878395 0
M  V30 39 H 11.254818 9.366829 -7.500395 0
M  V30 40 H 10.236898 9.801950 -6.145736 0
M  V30 41 H 9.382837 4.056977 -11.134049 0
M  V30 42 H 12.422886 10.897113 -6.042103 0
M  V30 43 H 13.264122 9.377410 -6.268398 0
M  V30 44 H 7.275220 3.634087 -12.618209 0
M  V30 45 H 5.905480 4.669064 -12.792759 0
M  V30 46 H 5.201628 5.879106 -15.115206 0
M  V30 47 H 6.403604 7.106901 -14.720505 0
M  V30 48 H 6.357848 6.407808 -16.334208 0
M  V30 49 H 11.386725 7.166600 -8.623482 0
M  V30 50 H 9.960172 8.196827 -8.632634 0
M  V30 51 H 8.991325 7.148800 -6.726374 0
M  V30 52 H 10.200828 5.889583 -6.709704 0
M  V30 53 H 13.709841 7.985365 -1.566778 0
M  V30 54 H 13.138968 9.520079 -1.762839 0
M  V30 55 H 11.590098 10.169491 -3.864789 0
M  V30 56 H 13.335464 10.026427 -3.891238 0
M  V30 57 H 12.535818 8.567696 -0.567580 0
M  V30 END ATOM
M  V30 BEGIN BOND
M  V30 1 1 8 2
M  V30 2 1 9 4
M  V30 3 1 9 7
M  V30 4 1 10 9
M  V30 5 2 11 8
M  V30 6 1 12 2
M  V30 7 1 12 5
M  V30 8 1 13 3
M  V30 9 1 13 7
M  V30 10 1 14 11
M  V30 11 1 15 1
M  V30 12 2 15 6
M  V30 13 1 16 7
M  V30 14 1 17 14
M  V30 15 1 18 13
M  V30 16 1 18 15
M  V30 17 1 19 15
M  V30 18 1 20 10
M  V30 19 1 21 11
M  V30 20 1 21 20
M  V30 21 1 22 12
M  V30 22 1 23 2
M  V30 23 1 23 17
M  V30 24 1 24 5
M  V30 25 1 2 25 CFG=1
M  V30 26 1 26 3
M  V30 27 1 27 4
M  V30 28 1 28 4
M  V30 29 1 29 4
M  V30 30 1 30 5
M  V30 31 1 31 5
M  V30 32 1 7 32 CFG=3
M  V30 33 1 33 8
M  V30 34 1 9 34 CFG=3
M  V30 35 1 35 10
M  V30 36 1 36 10
M  V30 37 1 12 37 CFG=3
M  V30 38 1 13 38 CFG=1
M  V30 39 1 39 14
M  V30 40 1 40 14
M  V30 41 1 41 16
M  V30 42 1 42 17
M  V30 43 1 43 17
M  V30 44 1 44 18
M  V30 45 1 45 18
M  V30 46 1 46 19
M  V30 47 1 47 19
M  V30 48 1 48 19
M  V30 49 1 49 20
M  V30 50 1 50 20
M  V30 51 1 51 21
M  V30 52 1 52 21
M  V30 53 1 53 22
M  V30 54 1 54 22
M  V30 55 1 55 23
M  V30 56 1 56 23
M  V30 57 1 57 22
M  V30 END BOND
M  V30 END CTAB
M  END
>  <i_epik_Tot_Q>  (1) 
0

>  <i_epik_Tot_abs_Q>  (1) 
2

>  <i_i_glide_confnum>  (1) 
360

>  <i_i_glide_lignum>  (1) 
115

>  <i_i_glide_posenum>  (1) 
93

>  <i_i_glide_rotatable_bonds>  (1) 
12

>  <i_lp_mmshare_version>  (1) 
72125

>  <i_m_source_file_index>  (1) 
58

>  <i_f3d_flags>  (1) 
0

>  <num_sample>  (1) 
100

>  <b_lp_Chiralities_Consistent>  (1) 
1

>  <r_epik_Charging_Adjusted_Penalty>  (1) 
0.062298349578367884

>  <r_epik_Ionization_Penalty>  (1) 
0.031162850121694747

>  <r_epik_Ionization_Penalty_Charging>  (1) 
0.031162474360832908

>  <r_epik_Ionization_Penalty_Neutral>  (1) 
3.7576086184060383e-07

>  <r_epik_State_Penalty>  (1) 
0.031135875217534977

>  <r_glide_ring_energy>  (1) 
0

>  <r_i_docking_score>  (1) 
-4.9250871995429204

>  <r_i_glide_ecoul>  (1) 
-2.7703466016681015

>  <r_i_glide_eff_state_penalty>  (1) 
0.031135875217534977

>  <r_i_glide_einternal>  (1) 
11.969522389788814

>  <r_i_glide_emodel>  (1) 
-31.322999673445135

>  <r_i_glide_emodel_strain>  (1) 
3.8873102239294077

>  <r_i_glide_energy>  (1) 
-30.403659089580284

>  <r_i_glide_erotb>  (1) 
1.1523900364963153

>  <r_i_glide_esite>  (1) 
-0.0081739576652359626

>  <r_i_glide_evdw>  (1) 
-27.633312487912182

>  <r_i_glide_gscore>  (1) 
-4.9562230747604552

>  <r_i_glide_gscore_strain>  (1) 
0

>  <r_i_glide_hbond>  (1) 
-0.16

>  <r_i_glide_ligand_efficiency>  (1) 
-0.20521196664762167

>  <r_i_glide_ligand_efficiency_ln>  (1) 
-1.178799364376012

>  <r_i_glide_ligand_efficiency_sa>  (1) 
-0.59193374143894117

>  <r_i_glide_lipo>  (1) 
-2.6594609322616081

>  <r_i_glide_metal>  (1) 
-0

>  <r_i_glide_rewards>  (1) 
-1.483760606684102

>  <r_lp_Energy>  (1) 
9.4265720000000002

>  <s_epik_cmdline>  (1) 
J2VwaWtfcHl0aG9uJywgJy1waHQnLCAnMS4wJywgJy1waCcsICc3LjQnLCAnLXRuJywgJzgnLCAnLW1hJywgJzUwMCcsICctaW1hZScsICc8aW5maWxlLm1hZT4nLCAnLW9tYWUnLCAnPG91dGZpbGUubWFlPic=

>  <s_epik_input>  (1) 
W09IXVtQQF0oPU8pKFtDSDNdKVtDSDJdW0NASF0oW09IXSlbQ0BIXShbT0hdKVtDQEBIXShbQ0gzXSlbQ0gyXVtDSDJdW0NIMl1DKFtDSDJdW0NIMl1bQ0gyXTEpPVtDSF1bQ0BASF0xW0NAQEhdKFtDSDJdRilbTkgyXQ==

>  <s_glide_docking_method>  (1) 
confgen

>  <s_i_glide_gridfile>  (1) 
gpcr_drd2_6luq_protein_autoprepared_prepared

>  <s_lp_Force_Field>  (1) 
S-OPLS

>  <s_lp_Variant>  (1) 
DiffSBDD_57_num_sample_100-1

>  <s_m_source_file>  (1) 
generated__ligand_DiffSBDD_2026-05-06_prepared.sdf

>  <GenAI_Model>  (1) 
DiffSBDD

>  <Protein>  (1) 
generic_title2

$$$$
DiffSBDD_73_num_sample_100
     RDKit          3D

  0  0  0  0  0  0  0  0  0  0999 V3000
M  V30 BEGIN CTAB
M  V30 COUNTS 42 44 0 0 1
M  V30 BEGIN ATOM
M  V30 1 C 7.077972 6.458002 -13.055899 0 CFG=1
M  V30 2 C 9.160630 5.933278 -8.353709 0
M  V30 3 O 7.834829 7.526791 -13.128178 0 CHG=-1
M  V30 4 C 10.402809 7.144110 -6.801434 0
M  V30 5 C 7.698937 5.690990 -15.351841 0
M  V30 6 C 9.021411 4.792294 -13.410431 0
M  V30 7 N 6.616520 6.189349 -14.458220 0 CFG=2 CHG=1
M  V30 8 C 8.366337 5.476053 -11.043746 0
M  V30 9 C 11.043980 7.898646 -7.800552 0
M  V30 10 C 9.760014 6.655318 -9.427263 0
M  V30 11 N 9.511196 6.169307 -7.066964 0
M  V30 12 C 8.426527 4.469787 -14.782685 0
M  V30 13 C 5.082620 6.969868 -16.335002 0
M  V30 14 C 8.181783 4.969305 -8.667430 0
M  V30 15 C 5.853702 7.328334 -15.053286 0
M  V30 16 C 12.011859 8.946136 -7.463881 0
M  V30 17 C 10.723602 7.633433 -9.140381 0
M  V30 18 C 7.777800 4.753743 -9.997039 0
M  V30 19 C 9.374136 6.416380 -10.760619 0
M  V30 20 C 7.893948 5.255511 -12.478215 0 CFG=1
M  V30 21 N 12.234839 9.369193 -6.291669 0
M  V30 22 H 6.162491 6.485309 -12.461714 0
M  V30 23 H 10.618875 7.319275 -5.757357 0
M  V30 24 H 8.420281 6.488088 -15.491667 0
M  V30 25 H 7.306330 5.433595 -16.333968 0
M  V30 26 H 9.788386 5.562189 -13.502679 0
M  V30 27 H 9.511692 3.909139 -12.999269 0
M  V30 28 H 9.220962 4.169546 -15.466335 0
M  V30 29 H 7.742690 3.623218 -14.709138 0
M  V30 30 H 4.439531 7.799041 -16.631538 0
M  V30 31 H 5.748409 6.774680 -17.175068 0
M  V30 32 H 4.445380 6.098792 -16.195329 0
M  V30 33 H 7.713658 4.410410 -7.874062 0
M  V30 34 H 5.144393 7.696446 -14.311025 0
M  V30 35 H 6.528037 8.160305 -15.264709 0
M  V30 36 H 12.556940 9.369301 -8.306057 0
M  V30 37 H 11.186765 8.196228 -9.938213 0
M  V30 38 H 7.003248 4.033267 -10.208647 0
M  V30 39 H 9.825632 6.980492 -11.563668 0
M  V30 40 H 7.195483 4.418402 -12.431691 0
M  V30 41 H 12.936459 10.094855 -6.258190 0
M  V30 42 H 5.961464 5.428685 -14.367678 0
M  V30 END ATOM
M  V30 BEGIN BOND
M  V30 1 1 3 1
M  V30 2 1 7 1
M  V30 3 1 7 5
M  V30 4 1 9 4
M  V30 5 1 10 2
M  V30 6 1 11 2
M  V30 7 2 11 4
M  V30 8 1 12 5
M  V30 9 1 12 6
M  V30 10 2 14 2
M  V30 11 1 15 7
M  V30 12 1 15 13
M  V30 13 1 16 9
M  V30 14 2 17 9
M  V30 15 1 17 10
M  V30 16 2 18 8
M  V30 17 1 18 14
M  V30 18 1 19 8
M  V30 19 2 19 10
M  V30 20 1 20 1
M  V30 21 1 20 6
M  V30 22 1 20 8
M  V30 23 2 21 16
M  V30 24 1 1 22 CFG=1
M  V30 25 1 23 4
M  V30 26 1 24 5
M  V30 27 1 25 5
M  V30 28 1 26 6
M  V30 29 1 27 6
M  V30 30 1 28 12
M  V30 31 1 29 12
M  V30 32 1 30 13
M  V30 33 1 31 13
M  V30 34 1 32 13
M  V30 35 1 33 14
M  V30 36 1 34 15
M  V30 37 1 35 15
M  V30 38 1 36 16
M  V30 39 1 37 17
M  V30 40 1 38 18
M  V30 41 1 39 19
M  V30 42 1 20 40 CFG=1
M  V30 43 1 41 21
M  V30 44 1 7 42 CFG=1
M  V30 END BOND
M  V30 END CTAB
M  END
>  <i_epik_Tot_Q>  (1) 
0

>  <i_epik_Tot_abs_Q>  (1) 
2

>  <i_i_glide_confnum>  (1) 
1

>  <i_i_glide_lignum>  (1) 
147

>  <i_i_glide_posenum>  (1) 
322

>  <i_i_glide_rotatable_bonds>  (1) 
3

>  <i_lp_mmshare_version>  (1) 
72125

>  <i_m_source_file_index>  (1) 
74

>  <i_f3d_flags>  (1) 
0

>  <num_sample>  (1) 
100

>  <b_lp_Chiralities_Consistent>  (1) 
1

>  <r_epik_Charging_Adjusted_Penalty>  (1) 
0.16727262916870361

>  <r_epik_Ionization_Penalty>  (1) 
0.055388618387316971

>  <r_epik_Ionization_Penalty_Charging>  (1) 
0.05537307808352282

>  <r_epik_Ionization_Penalty_Neutral>  (1) 
1.5540303794148587e-05

>  <r_epik_State_Penalty>  (1) 
0.11189955108518078

>  <r_glide_ring_energy>  (1) 
0

>  <r_i_docking_score>  (1) 
-4.9201377632481806

>  <r_i_glide_ecoul>  (1) 
0.81191218379257579

>  <r_i_glide_eff_state_penalty>  (1) 
0.11189955108518078

>  <r_i_glide_einternal>  (1) 
1.1492604202991092

>  <r_i_glide_emodel>  (1) 
-37.713082227285021

>  <r_i_glide_emodel_strain>  (1) 
0.045620654836845631

>  <r_i_glide_energy>  (1) 
-28.031588008111285

>  <r_i_glide_erotb>  (1) 
0.22551580141899327

>  <r_i_glide_esite>  (1) 
0

>  <r_i_glide_evdw>  (1) 
-28.84350019190386

>  <r_i_glide_gscore>  (1) 
-5.032037314333361

>  <r_i_glide_gscore_strain>  (1) 
0

>  <r_i_glide_hbond>  (1) 
0

>  <r_i_glide_ligand_efficiency>  (1) 
-0.23429227444038955

>  <r_i_glide_ligand_efficiency_ln>  (1) 
-1.2164941198886323

>  <r_i_glide_ligand_efficiency_sa>  (1) 
-0.64639462029291128

>  <r_i_glide_lipo>  (1) 
-1.1914575162103458

>  <r_i_glide_metal>  (1) 
-0

>  <r_i_glide_rewards>  (1) 
-2.7457074175157015

>  <r_lp_Energy>  (1) 
44.226918999999995

>  <s_epik_Chemistry_Notes>  (1) 
This compound has an imine and may undergo hydrolysis. This compound contains an acetal/aminal-like group ( X-CH(R)-Y where X, Y are N, S, or O) that may be acid/base labile, releasing an aldehyde.

>  <s_epik_cmdline>  (1) 
J2VwaWtfcHl0aG9uJywgJy1waHQnLCAnMS4wJywgJy1waCcsICc3LjQnLCAnLXRuJywgJzgnLCAnLW1hJywgJzUwMCcsICctaW1hZScsICc8aW5maWxlLm1hZT4nLCAnLW9tYWUnLCAnPG91dGZpbGUubWFlPic=

>  <s_epik_input>  (1) 
W09IXVtDQEhdMU4oW0NIMl1bQ0gzXSlbQ0gyXVtDSDJdW0NIMl1bQ0BIXTFjKFtjSF1bY0hdMilbY0hdYyhjMjMpW2NIXWMoW2NIXW4zKS9bQ0hdPU4vW0hd

>  <s_glide_docking_method>  (1) 
confgen

>  <s_i_glide_gridfile>  (1) 
gpcr_drd2_6luq_protein_autoprepared_prepared

>  <s_lp_Force_Field>  (1) 
S-OPLS

>  <s_lp_Variant>  (1) 
DiffSBDD_73_num_sample_100-2

>  <s_m_source_file>  (1) 
generated__ligand_DiffSBDD_2026-05-06_prepared.sdf

>  <GenAI_Model>  (1) 
DiffSBDD

>  <Protein>  (1) 
generic_title2

$$$$
DiffSBDD_4_num_sample_100
     RDKit          3D

  0  0  0  0  0  0  0  0  0  0999 V3000
M  V30 BEGIN CTAB
M  V30 COUNTS 57 60 0 0 1
M  V30 BEGIN ATOM
M  V30 1 C 6.850791 3.239392 -14.299571 0
M  V30 2 C 11.412449 7.620140 -4.733686 0
M  V30 3 C 6.349640 5.265164 -12.729579 0 CFG=2
M  V30 4 F 11.434852 10.476845 -6.692019 0
M  V30 5 C 10.025792 7.032732 -6.647528 0
M  V30 6 C 6.784289 6.726669 -12.405243 0
M  V30 7 C 10.560861 6.716664 -5.453022 0
M  V30 8 C 9.103499 6.082525 -7.386142 0
M  V30 9 C 8.199566 6.833609 -11.771622 0
M  V30 10 C 9.765032 5.968349 -9.854219 0 CFG=2
M  V30 11 O 7.306526 1.378863 -15.765508 0
M  V30 12 C 6.452373 4.535559 -11.372041 0
M  V30 13 C 7.886232 4.511471 -10.853996 0
M  V30 14 C 10.584670 7.301401 -9.791434 0
M  V30 15 C 5.934356 2.355182 -13.465357 0
M  V30 16 F 12.580032 8.840474 -7.459180 0
M  V30 17 C 8.537095 4.842806 -15.904222 0
M  V30 18 C 10.275695 8.396267 -7.309541 0 CFG=2
M  V30 19 C 8.332326 3.493835 -16.231383 0
M  V30 20 C 8.370395 5.927134 -10.527383 0 CFG=2
M  V30 21 C 7.058771 4.616639 -13.960748 0
M  V30 22 C 9.818476 5.287226 -8.478122 0
M  V30 23 C 7.907480 5.404146 -14.779718 0
M  V30 24 C 10.088729 8.454167 -8.867634 0
M  V30 25 C 11.525429 9.151106 -6.704574 0
M  V30 26 C 11.834839 8.753722 -5.281790 0
M  V30 27 C 7.496435 2.691211 -15.435393 0
M  V30 28 H 11.705763 7.378827 -3.722539 0
M  V30 29 H 5.294341 5.304947 -13.000846 0
M  V30 30 H 6.685223 7.379101 -13.271506 0
M  V30 31 H 6.078735 7.142013 -11.683070 0
M  V30 32 H 10.327073 5.769304 -5.010868 0
M  V30 33 H 8.243352 6.624339 -7.759670 0
M  V30 34 H 8.684016 5.369315 -6.691622 0
M  V30 35 H 8.372771 7.873240 -11.491912 0
M  V30 36 H 8.968338 6.580828 -12.500853 0
M  V30 37 H 10.234838 5.305318 -10.559270 0
M  V30 38 H 7.774857 1.108672 -16.539594 0
M  V30 39 H 5.835653 5.072955 -10.648818 0
M  V30 40 H 6.026396 3.544056 -11.328207 0
M  V30 41 H 7.834841 3.957587 -9.928899 0
M  V30 42 H 8.554676 3.984922 -11.536997 0
M  V30 43 H 11.613324 7.069658 -9.513112 0
M  V30 44 H 10.658990 7.696074 -10.804668 0
M  V30 45 H 6.482842 1.941499 -12.619898 0
M  V30 46 H 5.057489 2.907533 -13.133430 0
M  V30 47 H 5.560224 1.491779 -14.015086 0
M  V30 48 H 9.179921 5.453943 -16.520792 0
M  V30 49 H 9.427164 8.969375 -6.932337 0
M  V30 50 H 8.820027 3.072352 -17.097627 0
M  V30 51 H 7.672186 6.169292 -9.760134 0
M  V30 52 H 9.403465 4.284000 -8.527482 0
M  V30 53 H 10.851009 5.134019 -8.172604 0
M  V30 54 H 8.073774 6.442146 -14.551292 0
M  V30 55 H 9.034845 8.607246 -9.082059 0
M  V30 56 H 10.566828 9.369305 -9.211166 0
M  V30 57 H 12.468273 9.420744 -4.714944 0
M  V30 END ATOM
M  V30 BEGIN BOND
M  V30 1 1 6 3
M  V30 2 1 7 2
M  V30 3 2 7 5
M  V30 4 1 8 5
M  V30 5 1 9 6
M  V30 6 1 12 3
M  V30 7 1 13 12
M  V30 8 1 14 10
M  V30 9 1 15 1
M  V30 10 1 18 5
M  V30 11 2 19 17
M  V30 12 1 20 9
M  V30 13 1 20 10
M  V30 14 1 20 13
M  V30 15 1 21 1
M  V30 16 1 21 3
M  V30 17 1 22 8
M  V30 18 1 22 10
M  V30 19 1 23 17
M  V30 20 2 23 21
M  V30 21 1 24 14
M  V30 22 1 24 18
M  V30 23 1 25 4
M  V30 24 1 25 16
M  V30 25 1 25 18
M  V30 26 2 26 2
M  V30 27 1 26 25
M  V30 28 2 27 1
M  V30 29 1 27 11
M  V30 30 1 27 19
M  V30 31 1 28 2
M  V30 32 1 3 29 CFG=3
M  V30 33 1 30 6
M  V30 34 1 31 6
M  V30 35 1 32 7
M  V30 36 1 33 8
M  V30 37 1 34 8
M  V30 38 1 35 9
M  V30 39 1 36 9
M  V30 40 1 10 37 CFG=3
M  V30 41 1 38 11
M  V30 42 1 39 12
M  V30 43 1 40 12
M  V30 44 1 41 13
M  V30 45 1 42 13
M  V30 46 1 43 14
M  V30 47 1 44 14
M  V30 48 1 45 15
M  V30 49 1 46 15
M  V30 50 1 47 15
M  V30 51 1 48 17
M  V30 52 1 18 49 CFG=1
M  V30 53 1 50 19
M  V30 54 1 20 51 CFG=1
M  V30 55 1 52 22
M  V30 56 1 53 22
M  V30 57 1 54 23
M  V30 58 1 55 24
M  V30 59 1 56 24
M  V30 60 1 57 26
M  V30 END BOND
M  V30 END CTAB
M  END
>  <i_epik_Tot_Q>  (1) 
0

>  <i_epik_Tot_abs_Q>  (1) 
0

>  <i_i_glide_confnum>  (1) 
4

>  <i_i_glide_lignum>  (1) 
7

>  <i_i_glide_posenum>  (1) 
336

>  <i_i_glide_rotatable_bonds>  (1) 
3

>  <i_lp_mmshare_version>  (1) 
72125

>  <i_m_source_file_index>  (1) 
5

>  <i_f3d_flags>  (1) 
0

>  <num_sample>  (1) 
100

>  <b_lp_Chiralities_Consistent>  (1) 
1

>  <r_epik_Charging_Adjusted_Penalty>  (1) 
0

>  <r_epik_Ionization_Penalty>  (1) 
0.00041943368611793887

>  <r_epik_Ionization_Penalty_Charging>  (1) 
0

>  <r_epik_Ionization_Penalty_Neutral>  (1) 
0.00041943368611793887

>  <r_epik_State_Penalty>  (1) 
-0

>  <r_glide_ring_energy>  (1) 
1.0048079966283077

>  <r_i_docking_score>  (1) 
-4.9149197649465171

>  <r_i_glide_ecoul>  (1) 
-0.92125100848415231

>  <r_i_glide_eff_state_penalty>  (1) 
-0

>  <r_i_glide_einternal>  (1) 
0.063833419375797007

>  <r_i_glide_emodel>  (1) 
-28.762276365859819

>  <r_i_glide_emodel_strain>  (1) 
0.57368421054674457

>  <r_i_glide_energy>  (1) 
-22.443278144682527

>  <r_i_glide_erotb>  (1) 
0.27839532851763049

>  <r_i_glide_esite>  (1) 
0

>  <r_i_glide_evdw>  (1) 
-21.522027136198375

>  <r_i_glide_gscore>  (1) 
-4.9149197649465171

>  <r_i_glide_gscore_strain>  (1) 
0

>  <r_i_glide_hbond>  (1) 
0

>  <r_i_glide_ligand_efficiency>  (1) 
-0.18203406536838951

>  <r_i_glide_ligand_efficiency_ln>  (1) 
-1.1441122924944804

>  <r_i_glide_ligand_efficiency_sa>  (1) 
-0.54610219610516864

>  <r_i_glide_lipo>  (1) 
-1.8128576148569466

>  <r_i_glide_metal>  (1) 
-0

>  <r_i_glide_rewards>  (1) 
-2.1661684705246591

>  <r_lp_Energy>  (1) 
44.730646999999998

>  <r_lp_tautomer_probability>  (1) 
1

>  <s_epik_cmdline>  (1) 
J2VwaWtfcHl0aG9uJywgJy1waHQnLCAnMS4wJywgJy1waCcsICc3LjQnLCAnLXRuJywgJzgnLCAnLW1hJywgJzUwMCcsICctaW1hZScsICc8aW5maWxlLm1hZT4nLCAnLW9tYWUnLCAnPG91dGZpbGUubWFlPic=

>  <s_epik_input>  (1) 
W09IXWMxW2NIXVtjSF1bY0hdYyhjMVtDSDNdKVtDQEBIXTJbQ0gyXVtDSDJdW0NAQEhdKFtDSDJdW0NIMl0yKVtDQEhdKFtDSDJdW0NIMl0zKVtDSDJdW0NIMl1bQ0BASF0oQzM9NClDKEYpKEYpW0NIXT1bQ0hdW0NIXTQ=

>  <s_glide_docking_method>  (1) 
confgen

>  <s_i_glide_gridfile>  (1) 
gpcr_drd2_6luq_protein_autoprepared_prepared

>  <s_lp_Force_Field>  (1) 
S-OPLS

>  <s_lp_Variant>  (1) 
DiffSBDD_4_num_sample_100-1

>  <s_m_source_file>  (1) 
generated__ligand_DiffSBDD_2026-05-06_prepared.sdf

>  <GenAI_Model>  (1) 
DiffSBDD

>  <Protein>  (1) 
generic_title2

$$$$
DiffSBDD_90_num_sample_100
     RDKit          3D

  0  0  0  0  0  0  0  0  0  0999 V3000
M  V30 BEGIN CTAB
M  V30 COUNTS 61 65 0 0 1
M  V30 BEGIN ATOM
M  V30 1 C 11.399077 9.757395 -6.291666 0
M  V30 2 C 10.232522 8.362356 -9.021163 0
M  V30 3 C 7.338807 2.927897 -18.672074 0
M  V30 4 S 11.886658 9.767398 -4.631606 0
M  V30 5 C 9.521747 6.093282 -9.675676 0
M  V30 6 C 10.312801 6.536512 -7.427347 0
M  V30 7 C 9.820362 5.625683 -8.369239 0
M  V30 8 C 8.431519 2.408956 -17.717749 0
M  V30 9 C 5.980894 0.752509 -18.895527 0
M  V30 10 C 5.934919 2.478378 -20.730793 0
M  V30 11 N 7.928746 1.903294 -16.407965 0 CFG=2 CHG=1
M  V30 12 C 6.757103 0.986127 -16.462821 0
M  V30 13 C 8.121916 3.409480 -12.853200 0
M  V30 14 C 8.890665 7.035748 -12.257977 0
M  V30 15 C 10.509616 7.847427 -7.748947 0
M  V30 16 C 7.795198 2.984876 -15.392218 0
M  V30 17 C 11.578627 8.058794 -4.486565 0
M  V30 18 C 10.688313 6.169290 -5.939111 0
M  V30 19 C 9.034843 5.201520 -10.650485 0
M  V30 20 C 6.694389 0.081122 -17.708520 0
M  V30 21 N 11.098421 7.597933 -5.650913 0 CHG=1
M  V30 22 C 11.793638 7.199230 -3.280920 0
M  V30 23 C 6.788424 1.843622 -19.620265 0 CFG=1
M  V30 24 C 9.395280 7.930268 -11.293216 0
M  V30 25 C 9.721634 7.469357 -10.003932 0
M  V30 26 C 8.254438 4.743028 -13.012287 0
M  V30 27 C 7.664824 2.450762 -13.946802 0
M  V30 28 C 8.726810 5.667358 -11.955102 0
M  V30 29 C 10.994801 8.504273 -6.651383 0
M  V30 30 H 11.434840 10.656473 -6.878500 0
M  V30 31 H 10.394195 9.400012 -9.248129 0
M  V30 32 H 7.793003 3.704838 -19.289034 0
M  V30 33 H 6.537402 3.424916 -18.127299 0
M  V30 34 H 9.669665 4.588853 -8.107711 0
M  V30 35 H 9.158065 3.203942 -17.544114 0
M  V30 36 H 9.008261 1.622339 -18.204744 0
M  V30 37 H 5.715959 -0.018421 -19.620726 0
M  V30 38 H 5.034821 1.170255 -18.554994 0
M  V30 39 H 5.063392 2.989844 -20.321010 0
M  V30 40 H 6.507859 3.207802 -21.304141 0
M  V30 41 H 5.573676 1.724691 -21.431680 0
M  V30 42 H 6.790461 0.354314 -15.574052 0
M  V30 43 H 5.834879 1.556701 -16.386971 0
M  V30 44 H 8.355081 2.961355 -11.905102 0
M  V30 45 H 8.634835 7.398640 -13.240618 0
M  V30 46 H 6.951295 3.630752 -15.636319 0
M  V30 47 H 8.683564 3.612695 -15.454631 0
M  V30 48 H 9.838548 5.894663 -5.316899 0
M  V30 49 H 11.552091 5.511525 -5.849920 0
M  V30 50 H 8.904454 4.165267 -10.397506 0
M  V30 51 H 7.676563 -0.301795 -17.988727 0
M  V30 52 H 6.109734 -0.800546 -17.441976 0
M  V30 53 H 12.658796 6.569322 -3.450715 0
M  V30 54 H 11.954271 7.840022 -2.413830 0
M  V30 55 H 7.637059 1.362830 -20.109225 0
M  V30 56 H 9.519496 8.969243 -11.545010 0
M  V30 57 H 8.015903 5.189625 -13.965942 0
M  V30 58 H 8.287453 1.562088 -13.837153 0
M  V30 59 H 6.641648 2.134729 -13.738449 0
M  V30 60 H 10.919074 6.569218 -3.121603 0
M  V30 61 H 8.687577 1.329202 -16.068902 0
M  V30 END ATOM
M  V30 BEGIN BOND
M  V30 1 1 4 1
M  V30 2 2 7 5
M  V30 3 1 7 6
M  V30 4 1 8 3
M  V30 5 1 11 8
M  V30 6 1 12 11
M  V30 7 1 15 2
M  V30 8 2 15 6
M  V30 9 1 16 11
M  V30 10 1 17 4
M  V30 11 1 18 6
M  V30 12 1 19 5
M  V30 13 1 20 9
M  V30 14 1 20 12
M  V30 15 2 21 17
M  V30 16 1 21 18
M  V30 17 1 22 17
M  V30 18 1 23 3
M  V30 19 1 23 9
M  V30 20 1 23 10
M  V30 21 2 24 14
M  V30 22 2 25 2
M  V30 23 1 25 5
M  V30 24 1 25 24
M  V30 25 2 26 13
M  V30 26 1 27 13
M  V30 27 1 27 16
M  V30 28 1 28 14
M  V30 29 2 28 19
M  V30 30 1 28 26
M  V30 31 2 29 1
M  V30 32 1 29 15
M  V30 33 1 29 21
M  V30 34 1 30 1
M  V30 35 1 31 2
M  V30 36 1 32 3
M  V30 37 1 33 3
M  V30 38 1 34 7
M  V30 39 1 35 8
M  V30 40 1 36 8
M  V30 41 1 37 9
M  V30 42 1 38 9
M  V30 43 1 39 10
M  V30 44 1 40 10
M  V30 45 1 41 10
M  V30 46 1 42 12
M  V30 47 1 43 12
M  V30 48 1 44 13
M  V30 49 1 45 14
M  V30 50 1 46 16
M  V30 51 1 47 16
M  V30 52 1 48 18
M  V30 53 1 49 18
M  V30 54 1 50 19
M  V30 55 1 51 20
M  V30 56 1 52 20
M  V30 57 1 53 22
M  V30 58 1 54 22
M  V30 59 1 23 55 CFG=3
M  V30 60 1 56 24
M  V30 61 1 57 26
M  V30 62 1 58 27
M  V30 63 1 59 27
M  V30 64 1 60 22
M  V30 65 1 11 61 CFG=1
M  V30 END BOND
M  V30 END CTAB
M  END
>  <i_epik_Tot_Q>  (1) 
2

>  <i_epik_Tot_abs_Q>  (1) 
2

>  <i_i_glide_confnum>  (1) 
204

>  <i_i_glide_lignum>  (1) 
181

>  <i_i_glide_posenum>  (1) 
271

>  <i_i_glide_rotatable_bonds>  (1) 
4

>  <i_lp_mmshare_version>  (1) 
72125

>  <i_m_source_file_index>  (1) 
91

>  <i_f3d_flags>  (1) 
0

>  <num_sample>  (1) 
100

>  <b_lp_Chiralities_Consistent>  (1) 
1

>  <r_epik_Charging_Adjusted_Penalty>  (1) 
0.0021252633397680827

>  <r_epik_Ionization_Penalty>  (1) 
0.002125263340211697

>  <r_epik_Ionization_Penalty_Charging>  (1) 
0.0021252633397680827

>  <r_epik_Ionization_Penalty_Neutral>  (1) 
4.4361447992621368e-13

>  <r_epik_State_Penalty>  (1) 
-0

>  <r_glide_ring_energy>  (1) 
0.77474444662133479

>  <r_i_docking_score>  (1) 
-4.9108023819680264

>  <r_i_glide_ecoul>  (1) 
0.45480939387457353

>  <r_i_glide_eff_state_penalty>  (1) 
-0

>  <r_i_glide_einternal>  (1) 
4.624864380473392

>  <r_i_glide_emodel>  (1) 
-37.20073757542162

>  <r_i_glide_emodel_strain>  (1) 
0.12911006801600422

>  <r_i_glide_energy>  (1) 
-29.287770687758428

>  <r_i_glide_erotb>  (1) 
0.47996519481946287

>  <r_i_glide_esite>  (1) 
0

>  <r_i_glide_evdw>  (1) 
-29.742580081633001

>  <r_i_glide_gscore>  (1) 
-4.9108023819680264

>  <r_i_glide_gscore_strain>  (1) 
0

>  <r_i_glide_hbond>  (1) 
0

>  <r_i_glide_ligand_efficiency>  (1) 
-0.16933801317131125

>  <r_i_glide_ligand_efficiency_ln>  (1) 
-1.1244492182667725

>  <r_i_glide_ligand_efficiency_sa>  (1) 
-0.52026002709443131

>  <r_i_glide_lipo>  (1) 
-2.4113441005521428

>  <r_i_glide_metal>  (1) 
-0

>  <r_i_glide_rewards>  (1) 
-1.5605158812348823

>  <r_lp_Energy>  (1) 
49.609797999999998

>  <r_lp_tautomer_probability>  (1) 
1

>  <s_epik_cmdline>  (1) 
J2VwaWtfcHl0aG9uJywgJy1waHQnLCAnMS4wJywgJy1waCcsICc3LjQnLCAnLXRuJywgJzgnLCAnLW1hJywgJzUwMCcsICctaW1hZScsICc8aW5maWxlLm1hZT4nLCAnLW9tYWUnLCAnPG91dGZpbGUubWFlPic=

>  <s_epik_input>  (1) 
W0NIMl09QzFTW0NIXT1DMk4xW0NIMl1jKFtjSF0zKWMyW2NIXWMoYzM0KVtjSF1bY0hdYyhbY0hdNClcW0NIXT1bQ0hdXFtDSDJdW0NIMl1ONVtDSDJdW0NIMl1bQ0BIXShbQ0gzXSlbQ0gyXVtDSDJdW0NIMl01

>  <s_glide_docking_method>  (1) 
confgen

>  <s_i_glide_gridfile>  (1) 
gpcr_drd2_6luq_protein_autoprepared_prepared

>  <s_lp_Force_Field>  (1) 
S-OPLS

>  <s_lp_Variant>  (1) 
DiffSBDD_90_num_sample_100-1

>  <s_m_source_file>  (1) 
generated__ligand_DiffSBDD_2026-05-06_prepared.sdf

>  <GenAI_Model>  (1) 
DiffSBDD

>  <Protein>  (1) 
generic_title2

$$$$
DiffSBDD_58_num_sample_100
     RDKit          3D

  0  0  0  0  0  0  0  0  0  0999 V3000
M  V30 BEGIN CTAB
M  V30 COUNTS 48 50 0 0 1
M  V30 BEGIN ATOM
M  V30 1 C 9.972824 7.005003 -9.711907 0
M  V30 2 C 11.785462 8.913256 -5.137634 0
M  V30 3 C 9.568758 4.763489 -12.346175 0
M  V30 4 C 11.650242 8.868605 -9.114279 0
M  V30 5 C 10.244854 8.272170 -8.875708 0 CFG=2
M  V30 6 C 9.070326 6.210346 -12.369996 0 CFG=1
M  V30 7 C 12.235007 8.153925 -2.865503 0
M  V30 8 C 7.630937 6.191966 -11.852595 0
M  V30 9 C 7.398625 4.767029 -11.331477 0 CFG=1
M  V30 10 N 12.651186 8.431166 -1.567591 0
M  V30 11 O 10.988599 7.329655 -6.787361 0
M  V30 12 C 10.022455 8.070930 -7.370111 0
M  V30 13 C 11.834889 6.850535 -3.218128 0
M  V30 14 O 9.064809 8.569255 -6.781584 0
M  V30 15 C 11.382857 7.605217 -5.497386 0
M  V30 16 O 6.312913 3.122833 -13.411015 0
M  V30 17 C 12.211601 9.179830 -3.825764 0
M  V30 18 S 10.160313 7.368669 -11.491671 0
M  V30 19 C 7.655941 3.578450 -13.567626 0
M  V30 20 C 5.464773 4.095194 -12.807860 0
M  V30 21 C 5.933215 4.316569 -11.363002 0
M  V30 22 C 11.410560 6.576121 -4.534088 0
M  V30 23 C 8.318075 3.899645 -12.205930 0 CFG=1
M  V30 24 H 10.634917 6.189774 -9.430303 0
M  V30 25 H 8.967286 6.652370 -9.503319 0
M  V30 26 H 11.773602 9.705155 -5.871350 0
M  V30 27 H 10.136625 4.519238 -13.239533 0
M  V30 28 H 10.218519 4.596739 -11.488789 0
M  V30 29 H 11.835058 9.700411 -8.436470 0
M  V30 30 H 12.435740 8.126288 -8.961178 0
M  V30 31 H 11.762215 9.260195 -10.124610 0
M  V30 32 H 9.511601 9.017579 -9.186334 0
M  V30 33 H 9.033575 6.529150 -13.409753 0
M  V30 34 H 7.447639 6.937772 -11.091668 0
M  V30 35 H 6.960313 6.436091 -12.676562 0
M  V30 36 H 7.755433 4.725724 -10.299686 0
M  V30 37 H 12.789909 7.688516 -0.899559 0
M  V30 38 H 13.057866 9.330560 -1.335641 0
M  V30 39 H 11.851709 6.060287 -2.480698 0
M  V30 40 H 12.521497 10.169259 -3.556240 0
M  V30 41 H 7.657079 4.452636 -14.219039 0
M  V30 42 H 8.232156 2.809430 -14.083793 0
M  V30 43 H 5.474769 5.017626 -13.387363 0
M  V30 44 H 4.427174 3.769309 -12.825863 0
M  V30 45 H 5.301366 5.050982 -10.860821 0
M  V30 46 H 5.833385 3.385171 -10.802810 0
M  V30 47 H 11.105851 5.579112 -4.803505 0
M  V30 48 H 8.620749 2.970236 -11.724001 0
M  V30 END ATOM
M  V30 BEGIN BOND
M  V30 1 1 5 1
M  V30 2 1 5 4
M  V30 3 1 6 3
M  V30 4 1 8 6
M  V30 5 1 9 8
M  V30 6 1 10 7
M  V30 7 1 12 5
M  V30 8 1 12 11
M  V30 9 1 13 7
M  V30 10 2 14 12
M  V30 11 2 15 2
M  V30 12 1 15 11
M  V30 13 1 17 2
M  V30 14 2 17 7
M  V30 15 1 18 1
M  V30 16 1 18 6
M  V30 17 1 19 16
M  V30 18 1 20 16
M  V30 19 1 21 9
M  V30 20 1 21 20
M  V30 21 2 22 13
M  V30 22 1 22 15
M  V30 23 1 23 3
M  V30 24 1 23 9
M  V30 25 1 23 19
M  V30 26 1 24 1
M  V30 27 1 25 1
M  V30 28 1 26 2
M  V30 29 1 27 3
M  V30 30 1 28 3
M  V30 31 1 29 4
M  V30 32 1 30 4
M  V30 33 1 31 4
M  V30 34 1 5 32 CFG=3
M  V30 35 1 6 33 CFG=3
M  V30 36 1 34 8
M  V30 37 1 35 8
M  V30 38 1 9 36 CFG=1
M  V30 39 1 37 10
M  V30 40 1 38 10
M  V30 41 1 39 13
M  V30 42 1 40 17
M  V30 43 1 41 19
M  V30 44 1 42 19
M  V30 45 1 43 20
M  V30 46 1 44 20
M  V30 47 1 45 21
M  V30 48 1 46 21
M  V30 49 1 47 22
M  V30 50 1 23 48 CFG=1
M  V30 END BOND
M  V30 END CTAB
M  END
>  <i_epik_Tot_Q>  (1) 
0

>  <i_epik_Tot_abs_Q>  (1) 
0

>  <i_i_glide_confnum>  (1) 
343

>  <i_i_glide_lignum>  (1) 
116

>  <i_i_glide_posenum>  (1) 
149

>  <i_i_glide_rotatable_bonds>  (1) 
6

>  <i_lp_mmshare_version>  (1) 
72125

>  <i_m_source_file_index>  (1) 
59

>  <i_f3d_flags>  (1) 
0

>  <num_sample>  (1) 
100

>  <b_lp_Chiralities_Consistent>  (1) 
1

>  <r_epik_Charging_Adjusted_Penalty>  (1) 
0.0033808002230057204

>  <r_epik_Ionization_Penalty>  (1) 
0.0033808103155764289

>  <r_epik_Ionization_Penalty_Charging>  (1) 
0

>  <r_epik_Ionization_Penalty_Neutral>  (1) 
0.0033808103155764289

>  <r_epik_State_Penalty>  (1) 
0.0033808002230057204

>  <r_glide_ring_energy>  (1) 
0.00081652608624333781

>  <r_i_docking_score>  (1) 
-4.9061609411814784

>  <r_i_glide_ecoul>  (1) 
-3.1454529952258832

>  <r_i_glide_eff_state_penalty>  (1) 
0.0033808002230057204

>  <r_i_glide_einternal>  (1) 
7.989889693121536

>  <r_i_glide_emodel>  (1) 
-44.779732506296746

>  <r_i_glide_emodel_strain>  (1) 
0.93260765533717205

>  <r_i_glide_energy>  (1) 
-38.675343757742105

>  <r_i_glide_erotb>  (1) 
0.83854581213583013

>  <r_i_glide_esite>  (1) 
-0.034688240205535931

>  <r_i_glide_evdw>  (1) 
-35.529890762516224

>  <r_i_glide_gscore>  (1) 
-4.9095417414044844

>  <r_i_glide_gscore_strain>  (1) 
0

>  <r_i_glide_hbond>  (1) 
-0.27644782542873941

>  <r_i_glide_ligand_efficiency>  (1) 
-0.21331134526875992

>  <r_i_glide_ligand_efficiency_ln>  (1) 
-1.1863542021855247

>  <r_i_glide_ligand_efficiency_sa>  (1) 
-0.60662909123754283

>  <r_i_glide_lipo>  (1) 
-2.6471533794978601

>  <r_i_glide_metal>  (1) 
-0

>  <r_i_glide_rewards>  (1) 
-0.54148562099848463

>  <r_lp_Energy>  (1) 
27.491351999999999

>  <s_epik_cmdline>  (1) 
J2VwaWtfcHl0aG9uJywgJy1waHQnLCAnMS4wJywgJy1waCcsICc3LjQnLCAnLXRuJywgJzgnLCAnLW1hJywgJzUwMCcsICctaW1hZScsICc8aW5maWxlLm1hZT4nLCAnLW9tYWUnLCAnPG91dGZpbGUubWFlPic=

>  <s_epik_input>  (1) 
W0NIMl0xW0NIMl1PW0NIMl1bQ0BIXShbQ0BIXTEyKVtDSDJdW0NAQEhdKFtDSDJdMilTW0NIMl1bQ0BIXShbQ0gzXSlDKD1PKU9jKFtjSF1bY0hdMylbY0hdW2NIXWMzW05IMl0=

>  <s_glide_docking_method>  (1) 
confgen

>  <s_i_glide_gridfile>  (1) 
gpcr_drd2_6luq_protein_autoprepared_prepared

>  <s_lp_Force_Field>  (1) 
S-OPLS

>  <s_lp_Variant>  (1) 
DiffSBDD_58_num_sample_100-1

>  <s_m_source_file>  (1) 
generated__ligand_DiffSBDD_2026-05-06_prepared.sdf

>  <GenAI_Model>  (1) 
DiffSBDD

>  <Protein>  (1) 
generic_title2

$$$$
DiffSBDD_17_num_sample_100
     RDKit          3D

  0  0  0  0  0  0  0  0  0  0999 V3000
M  V30 BEGIN CTAB
M  V30 COUNTS 55 57 0 0 1
M  V30 BEGIN ATOM
M  V30 1 N 7.515906 5.684221 -15.178519 0
M  V30 2 C 7.117340 4.437854 -12.121821 0
M  V30 3 C 12.550718 8.969342 -9.356374 0
M  V30 4 C 9.134045 5.941582 -8.327569 0
M  V30 5 C 9.543455 6.316148 -7.016638 0
M  V30 6 C 6.010487 5.659625 -18.721072 0
M  V30 7 N 12.319729 8.570588 -7.937834 0
M  V30 8 C 5.012135 6.807926 -18.500301 0
M  V30 9 C 10.885309 7.372491 -9.211102 0
M  V30 10 F 3.480108 7.675667 -16.944552 0
M  V30 11 N 7.786345 4.928707 -10.926217 0
M  V30 12 C 5.482554 6.853529 -16.015227 0
M  V30 13 C 6.900588 5.407735 -17.516127 0
M  V30 14 C 11.271087 7.707655 -7.972480 0
M  V30 15 O 8.157047 3.449916 -15.334505 0
M  V30 16 C 6.400876 5.540956 -12.932283 0 CFG=2
M  V30 17 C 6.678882 5.937138 -16.289564 0
M  V30 18 C 7.345369 6.324108 -13.871430 0
M  V30 19 C 7.435348 4.566338 -9.639534 0
M  V30 20 C 5.608899 6.503803 -12.035930 0
M  V30 21 C 9.827565 6.494401 -9.439828 0
M  V30 22 C 11.651044 8.022660 -10.297760 0
M  V30 23 N 8.623283 4.827276 -15.373097 0
M  V30 24 C 10.622333 7.208369 -6.839364 0
M  V30 25 C 4.397505 6.722613 -17.098821 0 CFG=2
M  V30 26 C 7.996781 4.991083 -8.480656 0
M  V30 27 H 6.385489 3.686166 -11.825095 0
M  V30 28 H 7.846833 3.913700 -12.737881 0
M  V30 29 H 13.605114 8.889140 -9.617030 0
M  V30 30 H 12.234639 10.003535 -9.493058 0
M  V30 31 H 9.028161 5.917364 -6.156449 0
M  V30 32 H 6.631689 5.862414 -19.593574 0
M  V30 33 H 5.472435 4.733398 -18.921626 0
M  V30 34 H 12.325947 9.277045 -7.216008 0
M  V30 35 H 5.517851 7.769566 -18.613572 0
M  V30 36 H 4.234966 6.774692 -19.264401 0
M  V30 37 H 5.034929 6.649894 -15.045771 0
M  V30 38 H 5.839371 7.884548 -15.994821 0
M  V30 39 H 7.748239 4.760429 -17.680061 0
M  V30 40 H 7.301168 3.559166 -14.950845 0
M  V30 41 H 5.661080 5.034530 -13.553406 0
M  V30 42 H 8.318412 6.447321 -13.394212 0
M  V30 43 H 6.984232 7.342251 -14.013366 0
M  V30 44 H 6.616552 3.865049 -9.614954 0
M  V30 45 H 6.274879 7.098122 -11.419095 0
M  V30 46 H 5.034230 7.208941 -12.633146 0
M  V30 47 H 4.932210 5.971234 -11.368540 0
M  V30 48 H 9.560348 6.256329 -10.442157 0
M  V30 49 H 12.233756 7.294921 -10.856080 0
M  V30 50 H 10.969405 8.547266 -10.966471 0
M  V30 51 H 9.219718 4.835498 -14.546873 0
M  V30 52 H 10.940691 7.495122 -5.847781 0
M  V30 53 H 3.870600 5.773627 -16.983508 0
M  V30 54 H 7.588198 4.608822 -7.557296 0
M  V30 55 H 8.499051 5.627164 -11.056542 0
M  V30 END ATOM
M  V30 BEGIN BOND
M  V30 1 1 5 4
M  V30 2 1 7 3
M  V30 3 1 8 6
M  V30 4 1 11 2
M  V30 5 1 13 6
M  V30 6 1 14 7
M  V30 7 2 14 9
M  V30 8 1 16 2
M  V30 9 1 17 1
M  V30 10 1 17 12
M  V30 11 2 17 13
M  V30 12 1 18 1
M  V30 13 1 18 16
M  V30 14 1 19 11
M  V30 15 1 20 16
M  V30 16 2 21 4
M  V30 17 1 21 9
M  V30 18 1 22 3
M  V30 19 1 22 9
M  V30 20 1 23 1
M  V30 21 1 23 15
M  V30 22 2 24 5
M  V30 23 1 24 14
M  V30 24 1 25 8
M  V30 25 1 25 10
M  V30 26 1 25 12
M  V30 27 1 26 4
M  V30 28 2 26 19
M  V30 29 1 27 2
M  V30 30 1 28 2
M  V30 31 1 29 3
M  V30 32 1 30 3
M  V30 33 1 31 5
M  V30 34 1 32 6
M  V30 35 1 33 6
M  V30 36 1 34 7
M  V30 37 1 35 8
M  V30 38 1 36 8
M  V30 39 1 37 12
M  V30 40 1 38 12
M  V30 41 1 39 13
M  V30 42 1 40 15
M  V30 43 1 16 41 CFG=3
M  V30 44 1 42 18
M  V30 45 1 43 18
M  V30 46 1 44 19
M  V30 47 1 45 20
M  V30 48 1 46 20
M  V30 49 1 47 20
M  V30 50 1 48 21
M  V30 51 1 49 22
M  V30 52 1 50 22
M  V30 53 1 51 23
M  V30 54 1 52 24
M  V30 55 1 25 53 CFG=3
M  V30 56 1 54 26
M  V30 57 1 55 11
M  V30 END BOND
M  V30 END CTAB
M  END
>  <i_epik_Tot_Q>  (1) 
0

>  <i_epik_Tot_abs_Q>  (1) 
0

>  <i_i_glide_confnum>  (1) 
299

>  <i_i_glide_lignum>  (1) 
28

>  <i_i_glide_posenum>  (1) 
151

>  <i_i_glide_rotatable_bonds>  (1) 
9

>  <i_lp_mmshare_version>  (1) 
72125

>  <i_m_source_file_index>  (1) 
18

>  <i_f3d_flags>  (1) 
0

>  <num_sample>  (1) 
100

>  <b_lp_Chiralities_Consistent>  (1) 
1

>  <r_epik_Charging_Adjusted_Penalty>  (1) 
0

>  <r_epik_Ionization_Penalty>  (1) 
0.026997388265497368

>  <r_epik_Ionization_Penalty_Charging>  (1) 
0

>  <r_epik_Ionization_Penalty_Neutral>  (1) 
0.026997388265497368

>  <r_epik_State_Penalty>  (1) 
-0

>  <r_glide_ring_energy>  (1) 
0

>  <r_i_docking_score>  (1) 
-4.9017820423881187

>  <r_i_glide_ecoul>  (1) 
0.094449724314705941

>  <r_i_glide_eff_state_penalty>  (1) 
-0

>  <r_i_glide_einternal>  (1) 
5.161022984251713

>  <r_i_glide_emodel>  (1) 
-40.5531804379062

>  <r_i_glide_emodel_strain>  (1) 
0.13471164867548424

>  <r_i_glide_energy>  (1) 
-32.408048417104439

>  <r_i_glide_erotb>  (1) 
0.88558064458011865

>  <r_i_glide_esite>  (1) 
-0.030579176573932977

>  <r_i_glide_evdw>  (1) 
-32.502498141419146

>  <r_i_glide_gscore>  (1) 
-4.9017820423881187

>  <r_i_glide_gscore_strain>  (1) 
0

>  <r_i_glide_hbond>  (1) 
0

>  <r_i_glide_ligand_efficiency>  (1) 
-0.18853007855338919

>  <r_i_glide_ligand_efficiency_ln>  (1) 
-1.151167428596094

>  <r_i_glide_ligand_efficiency_sa>  (1) 
-0.55851961649094828

>  <r_i_glide_lipo>  (1) 
-2.1531286863813053

>  <r_i_glide_metal>  (1) 
-0

>  <r_i_glide_rewards>  (1) 
-1.9926973755892485

>  <r_lp_Energy>  (1) 
11.300393999999999

>  <r_lp_tautomer_probability>  (1) 
1

>  <s_epik_Chemistry_Notes>  (1) 
This compound has a N-S or N-O group and may undergo hydrolysis at high or low pH.

>  <s_epik_cmdline>  (1) 
J2VwaWtfcHl0aG9uJywgJy1waHQnLCAnMS4wJywgJy1waCcsICc3LjQnLCAnLXRuJywgJzgnLCAnLW1hJywgJzUwMCcsICctaW1hZScsICc8aW5maWxlLm1hZT4nLCAnLW9tYWUnLCAnPG91dGZpbGUubWFlPic=

>  <s_epik_input>  (1) 
RltDQEhdKFtDSDJdMSlbQ0gyXVtDSDJdW0NIXT1DMU4oW05IXVtPSF0pW0NIMl1bQ0BIXShbQ0gzXSlbQ0gyXVtOSF0vW0NIXT1bQ0hdXGMoW2NIXTIpW2NIXVtjSF1jKGMyMylbTkhdW0NIMl1bQ0gyXTM=

>  <s_glide_docking_method>  (1) 
confgen

>  <s_i_glide_gridfile>  (1) 
gpcr_drd2_6luq_protein_autoprepared_prepared

>  <s_lp_Force_Field>  (1) 
S-OPLS

>  <s_lp_Variant>  (1) 
DiffSBDD_17_num_sample_100-1

>  <s_m_source_file>  (1) 
generated__ligand_DiffSBDD_2026-05-06_prepared.sdf

>  <GenAI_Model>  (1) 
DiffSBDD

>  <Protein>  (1) 
generic_title2

$$$$
DiffSBDD_2_num_sample_100
     RDKit          3D

  0  0  0  0  0  0  0  0  0  0999 V3000
M  V30 BEGIN CTAB
M  V30 COUNTS 31 32 0 0 1
M  V30 BEGIN ATOM
M  V30 1 C 11.434833 7.211725 -4.683850 0
M  V30 2 C 7.063111 5.478847 -11.555848 0 CFG=2
M  V30 3 O 10.994780 8.698611 -6.990293 0
M  V30 4 C 7.720879 5.234499 -10.188242 0
M  V30 5 C 10.849288 6.640405 -5.859032 0
M  V30 6 O 11.834840 10.596012 -5.986262 0
M  V30 7 N 9.120648 5.622780 -10.200717 0
M  V30 8 C 12.604062 8.360714 -2.395116 0
M  V30 9 C 11.560604 9.406419 -5.921627 0
M  V30 10 C 10.081574 6.821844 -8.142553 0
M  V30 11 C 11.797576 8.565475 -4.691679 0
M  V30 12 C 10.649364 7.367019 -6.954259 0
M  V30 13 C 9.633490 6.276913 -9.139696 0
M  V30 14 O 7.178557 6.848454 -11.891755 0
M  V30 15 C 5.575827 5.107920 -11.538619 0
M  V30 16 C 12.387135 9.139596 -3.545850 0
M  V30 17 C 12.234834 7.006214 -2.387933 0
M  V30 18 C 11.652734 6.433389 -3.531839 0
M  V30 19 H 7.569799 4.891365 -12.322691 0
M  V30 20 H 7.178132 5.768390 -9.406717 0
M  V30 21 H 7.658299 4.174401 -9.936716 0
M  V30 22 H 10.579971 5.605707 -5.832745 0
M  V30 23 H 9.339499 6.006684 -11.109886 0
M  V30 24 H 13.055171 8.804388 -1.519049 0
M  V30 25 H 7.034837 7.355887 -11.092844 0
M  V30 26 H 5.436825 4.057398 -11.282061 0
M  V30 27 H 5.029449 5.703127 -10.805464 0
M  V30 28 H 5.119968 5.274339 -12.514628 0
M  V30 29 H 12.675173 10.169301 -3.550309 0
M  V30 30 H 12.401152 6.403485 -1.506932 0
M  V30 31 H 11.375256 5.394369 -3.527722 0
M  V30 END ATOM
M  V30 BEGIN BOND
M  V30 1 1 4 2
M  V30 2 1 5 1
M  V30 3 1 7 4
M  V30 4 1 9 3
M  V30 5 2 9 6
M  V30 6 1 11 1
M  V30 7 1 11 9
M  V30 8 1 12 3
M  V30 9 2 12 5
M  V30 10 1 12 10
M  V30 11 1 13 7
M  V30 12 3 13 10
M  V30 13 1 14 2
M  V30 14 1 15 2
M  V30 15 1 16 8
M  V30 16 2 16 11
M  V30 17 2 17 8
M  V30 18 2 18 1
M  V30 19 1 18 17
M  V30 20 1 2 19 CFG=3
M  V30 21 1 20 4
M  V30 22 1 21 4
M  V30 23 1 22 5
M  V30 24 1 23 7
M  V30 25 1 24 8
M  V30 26 1 25 14
M  V30 27 1 26 15
M  V30 28 1 27 15
M  V30 29 1 28 15
M  V30 30 1 29 16
M  V30 31 1 30 17
M  V30 32 1 31 18
M  V30 END BOND
M  V30 END CTAB
M  END
>  <i_epik_Tot_Q>  (1) 
0

>  <i_epik_Tot_abs_Q>  (1) 
0

>  <i_i_glide_confnum>  (1) 
7

>  <i_i_glide_lignum>  (1) 
4

>  <i_i_glide_posenum>  (1) 
70

>  <i_i_glide_rotatable_bonds>  (1) 
5

>  <i_lp_mmshare_version>  (1) 
72125

>  <i_m_source_file_index>  (1) 
3

>  <i_f3d_flags>  (1) 
0

>  <num_sample>  (1) 
100

>  <b_lp_Chiralities_Consistent>  (1) 
1

>  <r_epik_Charging_Adjusted_Penalty>  (1) 
0.030576885115692693

>  <r_epik_Ionization_Penalty>  (1) 
0.030576926290342817

>  <r_epik_Ionization_Penalty_Charging>  (1) 
0

>  <r_epik_Ionization_Penalty_Neutral>  (1) 
0.030576926290342817

>  <r_epik_State_Penalty>  (1) 
0.030576885115692693

>  <r_glide_ring_energy>  (1) 
0

>  <r_i_docking_score>  (1) 
-4.8863197307257789

>  <r_i_glide_ecoul>  (1) 
-5.3732733051070554

>  <r_i_glide_eff_state_penalty>  (1) 
0.030576885115692693

>  <r_i_glide_einternal>  (1) 
3.7525962091187979

>  <r_i_glide_emodel>  (1) 
-41.723908300662011

>  <r_i_glide_emodel_strain>  (1) 
0.14466892657512176

>  <r_i_glide_energy>  (1) 
-33.788089965926126

>  <r_i_glide_erotb>  (1) 
0.8801959699319355

>  <r_i_glide_esite>  (1) 
0

>  <r_i_glide_evdw>  (1) 
-28.414816660819071

>  <r_i_glide_gscore>  (1) 
-4.9168966158414715

>  <r_i_glide_gscore_strain>  (1) 
0

>  <r_i_glide_hbond>  (1) 
-0.16

>  <r_i_glide_ligand_efficiency>  (1) 
-0.27146220726254328

>  <r_i_glide_ligand_efficiency_ln>  (1) 
-1.2560032908958303

>  <r_i_glide_ligand_efficiency_sa>  (1) 
-0.71143224353626211

>  <r_i_glide_lipo>  (1) 
-2.2598921887845758

>  <r_i_glide_metal>  (1) 
-0

>  <r_i_glide_rewards>  (1) 
-1.1504685681818185

>  <r_lp_Energy>  (1) 
10.004031999999999

>  <s_epik_cmdline>  (1) 
J2VwaWtfcHl0aG9uJywgJy1waHQnLCAnMS4wJywgJy1waCcsICc3LjQnLCAnLXRuJywgJzgnLCAnLW1hJywgJzUwMCcsICctaW1hZScsICc8aW5maWxlLm1hZT4nLCAnLW9tYWUnLCAnPG91dGZpbGUubWFlPic=

>  <s_epik_input>  (1) 
W2NIXTFbY0hdW2NIXVtjSF1jKGMxMiljKD1PKW9jKFtjSF0yKUMjQ1tOSF1bQ0gyXVtDQEhdKFtPSF0pW0NIM10=

>  <s_glide_docking_method>  (1) 
confgen

>  <s_i_glide_gridfile>  (1) 
gpcr_drd2_6luq_protein_autoprepared_prepared

>  <s_lp_Force_Field>  (1) 
S-OPLS

>  <s_lp_Variant>  (1) 
DiffSBDD_2_num_sample_100-1

>  <s_m_source_file>  (1) 
generated__ligand_DiffSBDD_2026-05-06_prepared.sdf

>  <GenAI_Model>  (1) 
DiffSBDD

>  <Protein>  (1) 
generic_title2

$$$$
DiffSBDD_36_num_sample_100
     RDKit          3D

  0  0  0  0  0  0  0  0  0  0999 V3000
M  V30 BEGIN CTAB
M  V30 COUNTS 101 106 0 0 1
M  V30 BEGIN ATOM
M  V30 1 C 17.331162 10.409726 -23.146396 0
M  V30 2 O 16.863040 0.717860 -19.530480 0
M  V30 3 C 20.772376 5.670589 -19.949949 0
M  V30 4 C 6.058114 5.928430 -14.931486 0
M  V30 5 C 11.205194 3.957194 -18.923310 0 CFG=1
M  V30 6 O 7.506274 5.809795 -18.399131 0
M  V30 7 C 18.769446 3.050895 -21.899776 0
M  V30 8 C 19.278152 7.486701 -21.657045 0
M  V30 9 C 19.349445 5.967680 -21.868629 0 CFG=1
M  V30 10 C 19.918742 8.014648 -20.415566 0 CFG=1
M  V30 11 C 16.195054 -0.771723 -21.181180 0
M  V30 12 C 20.885221 4.218269 -22.581377 0
M  V30 13 C 20.290419 6.978335 -19.349714 0
M  V30 14 C 18.526724 9.753650 -22.485313 0
M  V30 15 S 8.723482 2.907367 -18.400898 0
M  V30 16 C 19.499351 10.569290 -21.955321 0
M  V30 17 C 13.882593 0.606093 -17.597131 0
M  V30 18 C 20.767797 10.162210 -21.333866 0
M  V30 19 C 8.360369 4.816577 -16.359841 0
M  V30 20 C 15.838009 -0.182129 -19.824120 0 CFG=2
M  V30 21 O 11.461832 5.215743 -16.772232 0
M  V30 22 C 15.071432 6.173121 -16.697917 0
M  V30 23 C 10.047914 3.173550 -19.504674 0
M  V30 24 C 6.104771 6.169302 -16.425354 0
M  V30 25 C 12.528869 6.075656 -17.146566 0
M  V30 26 C 20.347343 5.589121 -22.970773 0
M  V30 27 O 12.720558 -0.230695 -17.580322 0
M  V30 28 C 15.609719 5.209499 -17.766027 0
M  V30 29 C 20.035584 3.794255 -21.373920 0 CFG=2
M  V30 30 C 20.821606 2.847070 -20.434097 0
M  V30 31 S 4.904032 6.969304 -17.258135 0
M  V30 32 O 14.603394 0.453975 -19.964153 0
M  V30 33 C 13.679844 5.799314 -16.164339 0
M  V30 34 C 12.956785 2.090897 -19.431363 0
M  V30 35 C 10.006161 2.733299 -20.771889 0
M  V30 36 N 19.685871 5.086783 -20.738178 0
M  V30 37 C 17.596949 1.047657 -20.709181 0 CFG=1
M  V30 38 C 10.558169 4.832055 -17.804430 0 CFG=2
M  V30 39 C 7.342671 5.617728 -17.192163 0
M  V30 40 O 14.092568 -0.803700 -17.491665 0
M  V30 41 C 12.302515 3.007577 -18.379987 0
M  V30 42 O 17.130739 3.351605 -20.149940 0
M  V30 43 C 9.421334 4.010866 -17.141794 0 CFG=2
M  V30 44 C 20.973792 9.013740 -20.687734 0
M  V30 45 C 18.625416 8.275654 -22.531263 0
M  V30 46 C 14.181478 1.318694 -18.908595 0 CFG=1
M  V30 47 C 16.805170 0.431578 -21.863477 0
M  V30 48 C 17.770125 2.562982 -20.846872 0
M  V30 49 H 16.750496 9.689832 -23.723588 0
M  V30 50 H 16.676248 10.843887 -22.390198 0
M  V30 51 H 17.650102 11.204953 -23.820112 0
M  V30 52 H 21.034826 5.011715 -19.126877 0
M  V30 53 H 21.673664 5.830013 -20.542758 0
M  V30 54 H 5.911869 4.869098 -14.719211 0
M  V30 55 H 6.980444 6.266549 -14.458552 0
M  V30 56 H 11.632714 4.600839 -19.693232 0
M  V30 57 H 19.094990 2.175746 -22.462869 0
M  V30 58 H 18.353110 5.677403 -22.201770 0
M  V30 59 H 19.133263 8.604411 -19.938694 0
M  V30 60 H 16.930600 -1.564465 -21.037545 0
M  V30 61 H 15.319395 -1.181434 -21.685828 0
M  V30 62 H 21.937489 4.307638 -22.308081 0
M  V30 63 H 20.833791 3.505192 -23.404886 0
M  V30 64 H 19.423637 6.774453 -18.719007 0
M  V30 65 H 21.059128 7.378936 -18.691670 0
M  V30 66 H 19.339022 11.632344 -22.057152 0
M  V30 67 H 14.024550 1.176213 -16.681355 0
M  V30 68 H 21.596220 10.852561 -21.396623 0
M  V30 69 H 7.806596 4.112048 -15.740195 0
M  V30 70 H 8.865163 5.500559 -15.677231 0
M  V30 71 H 15.799838 -0.958412 -19.065978 0
M  V30 72 H 15.058057 7.190452 -17.091640 0
M  V30 73 H 15.769351 6.169286 -15.860364 0
M  V30 74 H 12.852985 5.887324 -18.168455 0
M  V30 75 H 12.215103 7.119029 -17.105517 0
M  V30 76 H 19.841716 5.563321 -23.932383 0
M  V30 77 H 21.163828 6.308975 -23.042800 0
M  V30 78 H 16.620409 5.489138 -18.065534 0
M  V30 79 H 15.647375 4.185900 -17.392934 0
M  V30 80 H 14.993527 5.214387 -18.664796 0
M  V30 81 H 20.933362 1.859025 -20.871398 0
M  V30 82 H 21.826555 3.206838 -20.211314 0
M  V30 83 H 20.300462 2.706192 -19.491670 0
M  V30 84 H 5.235660 6.478318 -14.474000 0
M  V30 85 H 13.483421 6.336352 -15.235504 0
M  V30 86 H 13.688504 4.742930 -15.891701 0
M  V30 87 H 12.222307 1.371427 -19.793965 0
M  V30 88 H 13.260139 2.683125 -20.295429 0
M  V30 89 H 10.825895 2.913924 -21.451478 0
M  V30 90 H 9.151326 2.187925 -21.143811 0
M  V30 91 H 18.577071 0.575457 -20.634573 0
M  V30 92 H 10.138930 5.729430 -18.261185 0
M  V30 93 H 13.098484 3.588910 -17.922099 0
M  V30 94 H 11.879418 2.403528 -17.576861 0
M  V30 95 H 18.221177 3.657115 -22.618972 0
M  V30 96 H 9.897612 3.344114 -16.427493 0
M  V30 97 H 21.948878 8.810610 -20.269447 0
M  V30 98 H 18.133164 7.782740 -23.356763 0
M  V30 99 H 14.970779 2.045046 -18.711433 0
M  V30 100 H 16.020100 1.104307 -22.212920 0
M  V30 101 H 17.430268 0.169313 -22.716882 0
M  V30 END ATOM
M  V30 BEGIN BOND
M  V30 1 1 9 8
M  V30 2 1 10 8
M  V30 3 1 13 3
M  V30 4 1 13 10
M  V30 5 1 14 1
M  V30 6 2 16 14
M  V30 7 1 18 16
M  V30 8 1 20 2
M  V30 9 1 20 11
M  V30 10 1 23 5
M  V30 11 1 23 15
M  V30 12 1 24 4
M  V30 13 1 25 21
M  V30 14 1 26 9
M  V30 15 1 26 12
M  V30 16 1 27 17
M  V30 17 1 28 22
M  V30 18 1 29 7 CFG=3
M  V30 19 1 29 12
M  V30 20 1 30 29
M  V30 21 2 31 24
M  V30 22 1 32 20
M  V30 23 1 33 22
M  V30 24 1 33 25
M  V30 25 2 35 23
M  V30 26 1 36 3
M  V30 27 1 36 9
M  V30 28 1 36 29
M  V30 29 1 37 2
M  V30 30 1 38 5
M  V30 31 1 38 21
M  V30 32 2 39 6
M  V30 33 1 39 19
M  V30 34 1 39 24
M  V30 35 1 40 17
M  V30 36 1 40 27
M  V30 37 1 41 5
M  V30 38 1 41 34
M  V30 39 1 43 15
M  V30 40 1 43 19
M  V30 41 1 43 38
M  V30 42 1 44 10
M  V30 43 2 44 18
M  V30 44 2 45 8
M  V30 45 1 45 14
M  V30 46 1 46 17
M  V30 47 1 46 32
M  V30 48 1 46 34
M  V30 49 1 47 11
M  V30 50 1 47 37
M  V30 51 1 48 7
M  V30 52 1 48 37
M  V30 53 2 48 42
M  V30 54 1 49 1
M  V30 55 1 50 1
M  V30 56 1 51 1
M  V30 57 1 52 3
M  V30 58 1 53 3
M  V30 59 1 54 4
M  V30 60 1 55 4
M  V30 61 1 5 56 CFG=3
M  V30 62 1 57 7
M  V30 63 1 9 58 CFG=3
M  V30 64 1 10 59 CFG=1
M  V30 65 1 60 11
M  V30 66 1 61 11
M  V30 67 1 62 12
M  V30 68 1 63 12
M  V30 69 1 64 13
M  V30 70 1 65 13
M  V30 71 1 66 16
M  V30 72 1 67 17
M  V30 73 1 68 18
M  V30 74 1 69 19
M  V30 75 1 70 19
M  V30 76 1 20 71 CFG=1
M  V30 77 1 72 22
M  V30 78 1 73 22
M  V30 79 1 74 25
M  V30 80 1 75 25
M  V30 81 1 76 26
M  V30 82 1 77 26
M  V30 83 1 78 28
M  V30 84 1 79 28
M  V30 85 1 80 28
M  V30 86 1 81 30
M  V30 87 1 82 30
M  V30 88 1 83 30
M  V30 89 1 84 4
M  V30 90 1 85 33
M  V30 91 1 86 33
M  V30 92 1 87 34
M  V30 93 1 88 34
M  V30 94 1 89 35
M  V30 95 1 90 35
M  V30 96 1 37 91 CFG=1
M  V30 97 1 38 92 CFG=3
M  V30 98 1 93 41
M  V30 99 1 94 41
M  V30 100 1 95 7
M  V30 101 1 43 96 CFG=1
M  V30 102 1 97 44
M  V30 103 1 98 45
M  V30 104 1 46 99 CFG=1
M  V30 105 1 100 47
M  V30 106 1 101 47
M  V30 END BOND
M  V30 END CTAB
M  END
>  <i_epik_Tot_Q>  (1) 
0

>  <i_epik_Tot_abs_Q>  (1) 
0

>  <i_i_glide_confnum>  (1) 
1415

>  <i_i_glide_lignum>  (1) 
64

>  <i_i_glide_posenum>  (1) 
112

>  <i_i_glide_rotatable_bonds>  (1) 
16

>  <i_lp_mmshare_version>  (1) 
72125

>  <i_m_source_file_index>  (1) 
37

>  <i_f3d_flags>  (1) 
0

>  <num_sample>  (1) 
100

>  <b_lp_Chiralities_Consistent>  (1) 
1

>  <r_epik_Charging_Adjusted_Penalty>  (1) 
0.36853766337093702

>  <r_epik_Ionization_Penalty>  (1) 
0.36853766343244521

>  <r_epik_Ionization_Penalty_Charging>  (1) 
0

>  <r_epik_Ionization_Penalty_Neutral>  (1) 
0.36853766343244521

>  <r_epik_State_Penalty>  (1) 
0.36853766337093702

>  <r_glide_ring_energy>  (1) 
0.90812249233528797

>  <r_i_docking_score>  (1) 
-4.8785530702491595

>  <r_i_glide_ecoul>  (1) 
-3.235382964540332

>  <r_i_glide_eff_state_penalty>  (1) 
0.36853766337093702

>  <r_i_glide_einternal>  (1) 
6.0749768142388092

>  <r_i_glide_emodel>  (1) 
-50.914253566748513

>  <r_i_glide_emodel_strain>  (1) 
3.3348698530436991

>  <r_i_glide_energy>  (1) 
-41.897785345538608

>  <r_i_glide_erotb>  (1) 
0.43754787897849062

>  <r_i_glide_esite>  (1) 
0

>  <r_i_glide_evdw>  (1) 
-38.662402380998273

>  <r_i_glide_gscore>  (1) 
-5.2470907336200963

>  <r_i_glide_gscore_strain>  (1) 
0

>  <r_i_glide_hbond>  (1) 
-0.10269279865925393

>  <r_i_glide_ligand_efficiency>  (1) 
-0.10163652229685749

>  <r_i_glide_ligand_efficiency_ln>  (1) 
-1.0015092908965992

>  <r_i_glide_ligand_efficiency_sa>  (1) 
-0.36937163529892536

>  <r_i_glide_lipo>  (1) 
-1.8563543599378605

>  <r_i_glide_metal>  (1) 
-0

>  <r_i_glide_rewards>  (1) 
-1.3071638902705096

>  <r_lp_Energy>  (1) 
26.071289

>  <r_lp_tautomer_probability>  (1) 
0.99994996000200076

>  <s_epik_Chemistry_Notes>  (1) 
This compound contains an acetal/aminal-like group ( X-CH(R)-Y where X, Y are N, S, or O) that may be acid/base labile, releasing an aldehyde.

>  <s_epik_cmdline>  (1) 
J2VwaWtfcHl0aG9uJywgJy1waHQnLCAnMS4wJywgJy1waCcsICc3LjQnLCAnLXRuJywgJzgnLCAnLW1hJywgJzUwMCcsICctaW1hZScsICc8aW5maWxlLm1hZT4nLCAnLW9tYWUnLCAnPG91dGZpbGUubWFlPic=

>  <s_epik_input>  (1) 
W0NIM11DKFtDSF0xKT1bQ0hdW0NIXT1bQ0hdW0NAQEhdMltDSDJdW0NIMl1OKFtDQEhdM0M9MTIpW0NAXShbQ0gzXSkoW0NIMl1bQ0gyXTMpL1tDSF09QyhbT0hdKS9bQ0BIXShbQ0gyXVtDSDJdNClPW0NASF00T1tDQEhdKFtDSF01T081KVtDSDJdW0NIMl1bQ0BIXTZDKD1bQ0gyXSlTW0NASF0oW0NIMl1DKD1PKUMoPVtDSDJdKVtTSF0pW0NASF02T1tDSDJdW0NIMl1bQ0gyXVtDSDNd

>  <s_glide_docking_method>  (1) 
confgen

>  <s_i_glide_gridfile>  (1) 
gpcr_drd2_6luq_protein_autoprepared_prepared

>  <s_lp_Force_Field>  (1) 
S-OPLS

>  <s_lp_Variant>  (1) 
DiffSBDD_36_num_sample_100-1

>  <s_m_source_file>  (1) 
generated__ligand_DiffSBDD_2026-05-06_prepared.sdf

>  <GenAI_Model>  (1) 
DiffSBDD

>  <Protein>  (1) 
generic_title2

$$$$
DiffSBDD_44_num_sample_100
     RDKit          3D

  0  0  0  0  0  0  0  0  0  0999 V3000
M  V30 BEGIN CTAB
M  V30 COUNTS 56 58 0 0 1
M  V30 BEGIN ATOM
M  V30 1 C 5.455142 5.959444 -13.518902 0
M  V30 2 C 6.718061 5.412609 -12.817966 0 CFG=1
M  V30 3 C 12.323418 9.275542 -4.704088 0
M  V30 4 C 11.975599 7.181065 -2.860524 0
M  V30 5 C 11.434831 7.066299 -4.155611 0
M  V30 6 C 9.162102 4.822914 -8.677172 0
M  V30 7 C 7.128845 4.068011 -13.385864 0
M  V30 8 N 7.922963 6.233462 -13.176945 0 CFG=2 CHG=1
M  V30 9 C 10.024985 6.054833 -8.992754 0
M  V30 10 C 10.059760 7.256963 -6.799274 0
M  V30 11 O 9.462183 6.490998 -6.061792 0
M  V30 12 C 12.686342 8.319843 -2.500813 0
M  V30 13 N 11.802849 6.169301 -1.938306 0
M  V30 14 C 8.577165 3.944854 -13.763102 0
M  V30 15 N 11.041333 8.070025 -6.427364 0
M  V30 16 C 7.703232 4.890129 -9.146414 0
M  V30 17 O 5.448357 5.370188 -10.764251 0
M  V30 18 C 10.638312 8.535907 -8.687821 0
M  V30 19 C 9.105453 5.340378 -13.374035 0
M  V30 20 N 7.670696 4.969409 -10.590719 0
M  V30 21 C 8.176630 7.472841 -12.382381 0
M  V30 22 C 9.707270 7.362416 -8.252120 0 CFG=1
M  V30 23 C 11.525784 8.948516 -7.471430 0
M  V30 24 C 11.586863 8.138844 -5.086204 0
M  V30 25 C 6.552513 5.241296 -11.288405 0
M  V30 26 C 12.870230 9.350531 -3.421695 0
M  V30 27 O 6.334369 3.140618 -13.526156 0
M  V30 28 H 4.634839 5.239634 -13.488479 0
M  V30 29 H 5.111367 6.883811 -13.052371 0
M  V30 30 H 5.641400 6.172343 -14.573431 0
M  V30 31 H 12.476378 10.089745 -5.393455 0
M  V30 32 H 10.905907 6.170363 -4.420564 0
M  V30 33 H 9.676994 3.991607 -9.158072 0
M  V30 34 H 9.169232 4.602491 -7.614716 0
M  V30 35 H 10.049903 6.232066 -10.066689 0
M  V30 36 H 11.034795 5.785554 -8.693388 0
M  V30 37 H 13.107492 8.404589 -1.509727 0
M  V30 38 H 12.308713 6.173932 -1.064709 0
M  V30 39 H 11.404296 5.278377 -2.217149 0
M  V30 40 H 9.048498 3.131742 -13.209396 0
M  V30 41 H 8.635501 3.761531 -14.836268 0
M  V30 42 H 7.143053 4.016070 -8.817702 0
M  V30 43 H 7.226947 5.767326 -8.709445 0
M  V30 44 H 11.275721 8.242977 -9.522185 0
M  V30 45 H 10.036311 9.369250 -9.050239 0
M  V30 46 H 9.688799 5.276921 -12.455527 0
M  V30 47 H 9.767145 5.740261 -14.142260 0
M  V30 48 H 8.542700 4.866366 -11.080756 0
M  V30 49 H 8.300214 7.304433 -11.314576 0
M  V30 50 H 9.090103 7.974822 -12.691907 0
M  V30 51 H 7.351095 8.173126 -12.504412 0
M  V30 52 H 8.657828 7.628359 -8.294072 0
M  V30 53 H 11.434865 9.999024 -7.212998 0
M  V30 54 H 12.577331 8.737198 -7.670469 0
M  V30 55 H 13.434853 10.189877 -3.141765 0
M  V30 56 H 7.718593 6.560852 -14.109965 0
M  V30 END ATOM
M  V30 BEGIN BOND
M  V30 1 1 2 1 CFG=3
M  V30 2 2 5 4
M  V30 3 1 7 2
M  V30 4 1 8 2
M  V30 5 1 9 6
M  V30 6 2 11 10
M  V30 7 1 12 4
M  V30 8 1 13 4
M  V30 9 1 14 7
M  V30 10 1 15 10
M  V30 11 1 16 6
M  V30 12 1 19 8
M  V30 13 1 19 14
M  V30 14 1 20 16
M  V30 15 1 21 8
M  V30 16 1 22 9
M  V30 17 1 22 10
M  V30 18 1 22 18
M  V30 19 1 23 15
M  V30 20 1 23 18
M  V30 21 2 24 3
M  V30 22 1 24 5
M  V30 23 1 24 15
M  V30 24 1 25 2
M  V30 25 2 25 17
M  V30 26 1 25 20
M  V30 27 1 26 3
M  V30 28 2 26 12
M  V30 29 2 27 7
M  V30 30 1 28 1
M  V30 31 1 29 1
M  V30 32 1 30 1
M  V30 33 1 31 3
M  V30 34 1 32 5
M  V30 35 1 33 6
M  V30 36 1 34 6
M  V30 37 1 35 9
M  V30 38 1 36 9
M  V30 39 1 37 12
M  V30 40 1 38 13
M  V30 41 1 39 13
M  V30 42 1 40 14
M  V30 43 1 41 14
M  V30 44 1 42 16
M  V30 45 1 43 16
M  V30 46 1 44 18
M  V30 47 1 45 18
M  V30 48 1 46 19
M  V30 49 1 47 19
M  V30 50 1 48 20
M  V30 51 1 49 21
M  V30 52 1 50 21
M  V30 53 1 51 21
M  V30 54 1 22 52 CFG=1
M  V30 55 1 53 23
M  V30 56 1 54 23
M  V30 57 1 55 26
M  V30 58 1 8 56 CFG=3
M  V30 END BOND
M  V30 END CTAB
M  END
>  <i_epik_Tot_Q>  (1) 
1

>  <i_epik_Tot_abs_Q>  (1) 
1

>  <i_i_glide_confnum>  (1) 
88

>  <i_i_glide_lignum>  (1) 
78

>  <i_i_glide_posenum>  (1) 
330

>  <i_i_glide_rotatable_bonds>  (1) 
7

>  <i_lp_mmshare_version>  (1) 
72125

>  <i_m_source_file_index>  (1) 
45

>  <i_f3d_flags>  (1) 
0

>  <num_sample>  (1) 
100

>  <b_lp_Chiralities_Consistent>  (1) 
1

>  <r_epik_Charging_Adjusted_Penalty>  (1) 
0.87787264938008924

>  <r_epik_Ionization_Penalty>  (1) 
0.44040452980928141

>  <r_epik_Ionization_Penalty_Charging>  (1) 
0.43893632469004462

>  <r_epik_Ionization_Penalty_Neutral>  (1) 
0.0014682051192367804

>  <r_epik_State_Penalty>  (1) 
0.43893632469004457

>  <r_glide_ring_energy>  (1) 
0

>  <r_i_docking_score>  (1) 
-4.8751654704942204

>  <r_i_glide_ecoul>  (1) 
-3.3176532630640843

>  <r_i_glide_eff_state_penalty>  (1) 
0.43893632469004457

>  <r_i_glide_einternal>  (1) 
3.8991072086352609

>  <r_i_glide_emodel>  (1) 
-39.243622552447135

>  <r_i_glide_emodel_strain>  (1) 
0.30610549563836287

>  <r_i_glide_energy>  (1) 
-31.097086507244018

>  <r_i_glide_erotb>  (1) 
0.96983297192060391

>  <r_i_glide_esite>  (1) 
-0.12195467367826428

>  <r_i_glide_evdw>  (1) 
-27.779433244179934

>  <r_i_glide_gscore>  (1) 
-5.3141017951842651

>  <r_i_glide_gscore_strain>  (1) 
0

>  <r_i_glide_hbond>  (1) 
0

>  <r_i_glide_ligand_efficiency>  (1) 
-0.18056168409237852

>  <r_i_glide_ligand_efficiency_ln>  (1) 
-1.1348581481467521

>  <r_i_glide_ligand_efficiency_sa>  (1) 
-0.5416850522771357

>  <r_i_glide_lipo>  (1) 
-2.2161055864324344

>  <r_i_glide_metal>  (1) 
-0

>  <r_i_glide_rewards>  (1) 
-2.0592548553255599

>  <r_lp_Energy>  (1) 
34.183026999999996

>  <r_lp_tautomer_probability>  (1) 
0.99995000000000001

>  <s_epik_cmdline>  (1) 
J2VwaWtfcHl0aG9uJywgJy1waHQnLCAnMS4wJywgJy1waCcsICc3LjQnLCAnLXRuJywgJzgnLCAnLW1hJywgJzUwMCcsICctaW1hZScsICc8aW5maWxlLm1hZT4nLCAnLW9tYWUnLCAnPG91dGZpbGUubWFlPic=

>  <s_epik_input>  (1) 
W0NIM11OMVtDSDJdW0NIMl1DKD1PKVtDQEBdMShbQ0gzXSlDKD1PKVtOSF1bQ0gyXVtDSDJdW0NIMl1bQ0BASF0yW0NIMl1bQ0gyXU4oQzI9TyljKFtjSF1bY0hdW2NIXTMpW2NIXWMzW05IMl0=

>  <s_glide_docking_method>  (1) 
confgen

>  <s_i_glide_gridfile>  (1) 
gpcr_drd2_6luq_protein_autoprepared_prepared

>  <s_lp_Force_Field>  (1) 
S-OPLS

>  <s_lp_Variant>  (1) 
DiffSBDD_44_num_sample_100-3

>  <s_m_source_file>  (1) 
generated__ligand_DiffSBDD_2026-05-06_prepared.sdf

>  <GenAI_Model>  (1) 
DiffSBDD

>  <Protein>  (1) 
generic_title2

$$$$
DiffSBDD_66_num_sample_100
     RDKit          3D

  0  0  0  0  0  0  0  0  0  0999 V3000
M  V30 BEGIN CTAB
M  V30 COUNTS 88 91 0 0 1
M  V30 BEGIN ATOM
M  V30 1 C 10.140466 0.823361 -17.737938 0
M  V30 2 F 6.725270 6.478483 -12.958278 0
M  V30 3 C 8.360420 2.402030 -18.783730 0 CFG=1
M  V30 4 N 8.098033 0.564337 -21.150619 0
M  V30 5 C 8.300742 -1.728308 -21.959926 0
M  V30 6 F 7.365946 3.959391 -20.230356 0
M  V30 7 O 8.186284 5.369250 -16.119733 0
M  V30 8 N 6.121995 -2.677566 -22.395770 0
M  V30 9 O 5.434915 4.846535 -12.103019 0
M  V30 10 C 7.838549 1.929626 -21.344800 0
M  V30 11 O 7.829215 -4.048121 -21.975761 0
M  V30 12 C 6.958956 2.221730 -18.137933 0
M  V30 13 C 6.615401 -4.847794 -22.148503 0
M  V30 14 C 6.834014 1.631040 -16.733050 0
M  V30 15 O 10.658106 -0.892893 -22.025393 0
M  V30 16 C 7.789761 -0.349844 -22.180938 0
M  V30 17 O 7.355896 2.383853 -22.385961 0
M  V30 18 C 9.794735 -1.970218 -21.693330 0
M  V30 19 C 5.753732 0.560255 -16.577750 0
M  V30 20 C 9.085757 5.085846 -15.329599 0
M  V30 21 C 5.412945 -3.897733 -22.513020 0
M  V30 22 O 7.909125 -2.459845 -17.491714 0
M  V30 23 C 7.055591 2.769770 -13.278256 0
M  V30 24 C 12.245895 6.087341 -16.937122 0
M  V30 25 C 6.734331 5.203124 -12.498596 0 CFG=1
M  V30 26 O 7.147950 -0.027976 -23.186801 0
M  V30 27 C 9.275178 1.193571 -18.958038 0 CFG=2
M  V30 28 N 10.383359 5.109504 -15.664330 0
M  V30 29 C 7.063516 0.264261 -13.847365 0 CFG=2
M  V30 30 C 7.416637 -0.717157 -19.102210 0
M  V30 31 C 6.133933 -0.921059 -16.858435 0 CFG=1
M  V30 32 O 5.681749 0.169355 -13.467528 0
M  V30 33 C 4.949564 -1.671545 -17.492044 0
M  V30 34 C 7.607024 2.086204 -15.715566 0
M  V30 35 C 7.273136 4.276853 -13.617893 0 CFG=1
M  V30 36 C 8.591319 0.074807 -19.788468 0 CFG=1
M  V30 37 C 8.210266 2.924455 -20.210643 0 CFG=2
M  V30 38 C 7.433061 -2.757775 -22.113784 0
M  V30 39 C 10.846113 5.467705 -16.999525 0
M  V30 40 C 6.634802 -0.139907 -12.449920 0
M  V30 41 C 7.570644 1.651139 -14.236141 0 CFG=1
M  V30 42 C 7.478148 -1.119820 -17.607568 0 CFG=1
M  V30 43 C 8.757154 4.672589 -13.887029 0
M  V30 44 H 9.623636 0.928672 -16.792171 0
M  V30 45 H 10.533070 -0.190829 -17.807394 0
M  V30 46 H 10.996287 1.494964 -17.666283 0
M  V30 47 H 8.896827 3.157269 -18.207432 0
M  V30 48 H 5.659248 -1.796202 -22.583184 0
M  V30 49 H 5.373575 4.989236 -11.170125 0
M  V30 50 H 6.549360 3.224970 -18.024892 0
M  V30 51 H 6.259840 1.776048 -18.837192 0
M  V30 52 H 6.772553 -5.601951 -22.921110 0
M  V30 53 H 6.410911 -5.375684 -21.215644 0
M  V30 54 H 10.799899 -0.357085 -21.260316 0
M  V30 55 H 10.093905 -2.785214 -22.353887 0
M  V30 56 H 9.953283 -2.356931 -20.691667 0
M  V30 57 H 5.184145 0.656515 -15.661523 0
M  V30 58 H 5.034926 0.829019 -17.340792 0
M  V30 59 H 5.053852 -4.045074 -23.531781 0
M  V30 60 H 4.590865 -3.960681 -21.799943 0
M  V30 61 H 7.834859 -2.713504 -16.571160 0
M  V30 62 H 5.980485 2.623001 -13.169018 0
M  V30 63 H 7.481137 2.597237 -12.291684 0
M  V30 64 H 12.604575 6.337677 -17.936563 0
M  V30 65 H 12.244160 7.003773 -16.346474 0
M  V30 66 H 12.963945 5.399077 -16.490992 0
M  V30 67 H 7.372286 5.142654 -11.617696 0
M  V30 68 H 10.078355 1.522099 -19.623008 0
M  V30 69 H 11.080278 4.862884 -14.968294 0
M  V30 70 H 7.483223 -0.557349 -14.419038 0
M  V30 71 H 7.235742 -1.644392 -19.640479 0
M  V30 72 H 6.491129 -0.187604 -19.289745 0
M  V30 73 H 6.234146 -1.393350 -15.887642 0
M  V30 74 H 4.760224 -1.371475 -18.521176 0
M  V30 75 H 5.104905 -2.749913 -17.481773 0
M  V30 76 H 4.042588 -1.456980 -16.929157 0
M  V30 77 H 8.325805 2.836974 -15.946204 0
M  V30 78 H 6.652445 4.471542 -14.491838 0
M  V30 79 H 9.416740 -0.603816 -19.830176 0
M  V30 80 H 9.158008 3.373117 -20.510518 0
M  V30 81 H 10.864278 4.570629 -17.617920 0
M  V30 82 H 10.164645 6.169311 -17.480454 0
M  V30 83 H 6.634775 -1.188509 -12.165319 0
M  V30 84 H 6.635763 0.569258 -11.629931 0
M  V30 85 H 8.634974 1.578055 -14.018145 0
M  V30 86 H 8.217350 -0.566837 -17.053790 0
M  V30 87 H 9.039304 5.530117 -13.275761 0
M  V30 88 H 9.423633 3.880700 -13.548822 0
M  V30 END ATOM
M  V30 BEGIN BOND
M  V30 1 1 10 4
M  V30 2 1 12 3
M  V30 3 1 13 11
M  V30 4 1 14 12
M  V30 5 1 16 4
M  V30 6 1 16 5
M  V30 7 2 17 10
M  V30 8 1 18 5
M  V30 9 1 18 15
M  V30 10 1 19 14
M  V30 11 2 20 7
M  V30 12 1 21 8
M  V30 13 1 21 13
M  V30 14 1 25 2
M  V30 15 1 25 9
M  V30 16 2 26 16
M  V30 17 1 27 1
M  V30 18 1 27 3
M  V30 19 1 28 20
M  V30 20 1 31 19
M  V30 21 1 32 29
M  V30 22 1 33 31
M  V30 23 2 34 14
M  V30 24 1 35 23
M  V30 25 1 35 25
M  V30 26 1 36 4
M  V30 27 1 36 27
M  V30 28 1 36 30
M  V30 29 1 37 3
M  V30 30 1 37 6
M  V30 31 1 37 10
M  V30 32 2 38 5
M  V30 33 1 38 8
M  V30 34 1 38 11
M  V30 35 1 39 24
M  V30 36 1 39 28
M  V30 37 1 40 29
M  V30 38 1 40 32
M  V30 39 1 41 23
M  V30 40 1 41 29
M  V30 41 1 41 34
M  V30 42 1 42 22
M  V30 43 1 42 30
M  V30 44 1 42 31
M  V30 45 1 43 20
M  V30 46 1 43 35
M  V30 47 1 44 1
M  V30 48 1 45 1
M  V30 49 1 46 1
M  V30 50 1 3 47 CFG=1
M  V30 51 1 48 8
M  V30 52 1 49 9
M  V30 53 1 50 12
M  V30 54 1 51 12
M  V30 55 1 52 13
M  V30 56 1 53 13
M  V30 57 1 54 15
M  V30 58 1 55 18
M  V30 59 1 56 18
M  V30 60 1 57 19
M  V30 61 1 58 19
M  V30 62 1 59 21
M  V30 63 1 60 21
M  V30 64 1 61 22
M  V30 65 1 62 23
M  V30 66 1 63 23
M  V30 67 1 64 24
M  V30 68 1 65 24
M  V30 69 1 66 24
M  V30 70 1 25 67 CFG=1
M  V30 71 1 27 68 CFG=3
M  V30 72 1 69 28
M  V30 73 1 29 70 CFG=3
M  V30 74 1 71 30
M  V30 75 1 72 30
M  V30 76 1 31 73 CFG=1
M  V30 77 1 74 33
M  V30 78 1 75 33
M  V30 79 1 76 33
M  V30 80 1 77 34
M  V30 81 1 35 78 CFG=3
M  V30 82 1 36 79 CFG=3
M  V30 83 1 37 80 CFG=3
M  V30 84 1 81 39
M  V30 85 1 82 39
M  V30 86 1 83 40
M  V30 87 1 84 40
M  V30 88 1 41 85 CFG=1
M  V30 89 1 42 86 CFG=1
M  V30 90 1 87 43
M  V30 91 1 88 43
M  V30 END BOND
M  V30 END CTAB
M  END
>  <i_epik_Tot_Q>  (1) 
0

>  <i_epik_Tot_abs_Q>  (1) 
0

>  <i_i_glide_confnum>  (1) 
1797

>  <i_i_glide_lignum>  (1) 
129

>  <i_i_glide_posenum>  (1) 
162

>  <i_i_glide_rotatable_bonds>  (1) 
15

>  <i_lp_mmshare_version>  (1) 
72125

>  <i_m_source_file_index>  (1) 
67

>  <i_f3d_flags>  (1) 
0

>  <num_sample>  (1) 
100

>  <b_lp_Chiralities_Consistent>  (1) 
1

>  <r_epik_Charging_Adjusted_Penalty>  (1) 
0.011224841026204068

>  <r_epik_Ionization_Penalty>  (1) 
0.011270599783865109

>  <r_epik_Ionization_Penalty_Charging>  (1) 
8.5422756824624084e-11

>  <r_epik_Ionization_Penalty_Neutral>  (1) 
0.011270599698442352

>  <r_epik_State_Penalty>  (1) 
0.01122484094078131

>  <r_glide_ring_energy>  (1) 
0

>  <r_i_docking_score>  (1) 
-4.8733694216932619

>  <r_i_glide_ecoul>  (1) 
-10.099806028839952

>  <r_i_glide_eff_state_penalty>  (1) 
0.01122484094078131

>  <r_i_glide_einternal>  (1) 
14.248036353345286

>  <r_i_glide_emodel>  (1) 
-33.264298950702702

>  <r_i_glide_emodel_strain>  (1) 
3.9141458066866051

>  <r_i_glide_energy>  (1) 
-37.956420236001129

>  <r_i_glide_erotb>  (1) 
0.43215163049877869

>  <r_i_glide_esite>  (1) 
-0.012108200410064444

>  <r_i_glide_evdw>  (1) 
-27.856614207161179

>  <r_i_glide_gscore>  (1) 
-4.8845942626340433

>  <r_i_glide_gscore_strain>  (1) 
0

>  <r_i_glide_hbond>  (1) 
-0.60799999999999998

>  <r_i_glide_ligand_efficiency>  (1) 
-0.11333417259751771

>  <r_i_glide_ligand_efficiency_ln>  (1) 
-1.0235590404255379

>  <r_i_glide_ligand_efficiency_sa>  (1) 
-0.3970547204536779

>  <r_i_glide_lipo>  (1) 
-1.5542161104867869

>  <r_i_glide_metal>  (1) 
-0

>  <r_i_glide_rewards>  (1) 
-0.23461996755191841

>  <r_lp_Energy>  (1) 
54.897804999999998

>  <r_lp_tautomer_probability>  (1) 
0.49997499999946832

>  <s_epik_Chemistry_Notes>  (1) 
This compound has an imine and may undergo hydrolysis.

>  <s_epik_cmdline>  (1) 
J2VwaWtfcHl0aG9uJywgJy1waHQnLCAnMS4wJywgJy1waCcsICc3LjQnLCAnLXRuJywgJzgnLCAnLW1hJywgJzUwMCcsICctaW1hZScsICc8aW5maWxlLm1hZT4nLCAnLW9tYWUnLCAnPG91dGZpbGUubWFlPic=

>  <s_epik_input>  (1) 
TzFbQ0gyXVtDSDJdTj1DMVtDQEhdKFtDSDJdW09IXSlDKD1PKU4oQyg9TylbQ0BIXTJGKVtDQEBIXShbQ0BASF0zW0NIM10pW0NIMl1bQ0BIXShbT0hdKVtDQEhdKFtDSDNdKVtDSDJdQyhcW0NIMl1bQ0BIXTIzKT1bQ0hdL1tDQEhdKFtDQEBIXTRPW0NIMl00KVtDSDJdW0NAQEhdKFtDQEBIXShGKVtPSF0pW0NIMl1DKD1PKVtOSF1bQ0gyXVtDSDNd

>  <s_glide_docking_method>  (1) 
confgen

>  <s_i_glide_gridfile>  (1) 
gpcr_drd2_6luq_protein_autoprepared_prepared

>  <s_lp_Force_Field>  (1) 
S-OPLS

>  <s_lp_Variant>  (1) 
DiffSBDD_66_num_sample_100-1

>  <s_m_source_file>  (1) 
generated__ligand_DiffSBDD_2026-05-06_prepared.sdf

>  <GenAI_Model>  (1) 
DiffSBDD

>  <Protein>  (1) 
generic_title2

$$$$
DiffSBDD_79_num_sample_100
     RDKit          3D

  0  0  0  0  0  0  0  0  0  0999 V3000
M  V30 BEGIN CTAB
M  V30 COUNTS 55 58 0 0 1
M  V30 BEGIN ATOM
M  V30 1 C 8.802236 6.085366 -20.832127 0
M  V30 2 C 6.681160 5.832034 -19.475710 0
M  V30 3 O 4.235418 4.573401 -20.388240 0
M  V30 4 C 8.389019 4.969309 -9.959497 0
M  V30 5 C 8.737713 5.252977 -11.230493 0
M  V30 6 C 5.199544 4.582633 -21.182759 0
M  V30 7 C 6.633414 7.021108 -14.828650 0
M  V30 8 C 6.833374 5.188426 -13.074924 0 CFG=1
M  V30 9 C 9.034311 5.451742 -8.706957 0
M  V30 10 C 6.470632 6.628084 -13.333179 0
M  V30 11 S 8.208652 6.569272 -19.142376 0
M  V30 12 C 10.219340 7.545885 -9.480495 0
M  V30 13 C 9.824184 6.192970 -11.613841 0
M  V30 14 F 10.707103 8.737282 -9.092745 0
M  V30 15 C 8.100771 4.819225 -13.802560 0 CFG=1
M  V30 16 C 9.593661 6.816005 -8.556027 0
M  V30 17 C 7.988257 4.537781 -12.323526 0 CFG=1
M  V30 18 C 4.444448 7.369283 -17.083571 0
M  V30 19 O 5.244961 4.107705 -22.338663 0 CHG=-1
M  V30 20 C 7.664595 5.350663 -21.641884 0
M  V30 21 C 10.441640 7.164919 -10.873718 0
M  V30 22 C 6.514634 5.287553 -20.672148 0
M  V30 23 C 7.418180 4.931456 -16.184214 0
M  V30 24 N 5.744430 5.869657 -18.436646 0
M  V30 25 O 9.434810 7.244854 -7.293101 0
M  V30 26 C 5.825421 6.702744 -17.232798 0 CFG=2
M  V30 27 C 7.777151 3.989085 -15.015371 0
M  V30 28 C 6.261485 5.957466 -15.925557 0 CFG=2
M  V30 29 H 9.666521 5.430414 -20.721382 0
M  V30 30 H 9.139213 6.976194 -21.362114 0
M  V30 31 H 7.585401 4.262809 -9.806268 0
M  V30 32 H 6.060659 7.934789 -14.963622 0
M  V30 33 H 7.659658 7.338250 -14.997529 0
M  V30 34 H 5.974131 4.529177 -13.192414 0
M  V30 35 H 9.824259 4.741985 -8.460568 0
M  V30 36 H 8.271165 5.311840 -7.938322 0
M  V30 37 H 5.434900 6.770469 -13.022951 0
M  V30 38 H 7.070926 7.279808 -12.697487 0
M  V30 39 H 10.152334 6.132038 -12.636617 0
M  V30 40 H 8.797093 5.610042 -14.058492 0
M  V30 41 H 7.877028 3.482063 -12.083510 0
M  V30 42 H 4.423417 8.148997 -16.324350 0
M  V30 43 H 4.136141 7.834527 -18.020216 0
M  V30 44 H 3.679158 6.636643 -16.825419 0
M  V30 45 H 7.966303 4.348561 -21.949035 0
M  V30 46 H 7.377368 5.915200 -22.529129 0
M  V30 47 H 11.175267 7.753966 -11.401791 0
M  V30 48 H 7.174942 4.290244 -17.030536 0
M  V30 49 H 8.314391 5.475777 -16.480611 0
M  V30 50 H 8.751408 6.720353 -6.902025 0
M  V30 51 H 6.534998 7.506081 -17.404935 0
M  V30 52 H 6.957419 3.299705 -14.806207 0
M  V30 53 H 8.634906 3.376114 -15.281176 0
M  V30 54 H 5.405687 5.385172 -15.573591 0
M  V30 55 H 4.840689 5.444454 -18.619537 0
M  V30 END ATOM
M  V30 BEGIN BOND
M  V30 1 2 5 4
M  V30 2 2 6 3
M  V30 3 1 9 4
M  V30 4 1 10 7
M  V30 5 1 10 8
M  V30 6 1 11 1
M  V30 7 1 11 2
M  V30 8 1 13 5
M  V30 9 1 14 12
M  V30 10 1 15 8
M  V30 11 1 16 9
M  V30 12 2 16 12
M  V30 13 1 17 5
M  V30 14 1 17 8
M  V30 15 1 17 15
M  V30 16 1 19 6
M  V30 17 1 20 1
M  V30 18 1 21 12
M  V30 19 2 21 13
M  V30 20 2 22 2
M  V30 21 1 22 6
M  V30 22 1 22 20
M  V30 23 1 24 2
M  V30 24 1 25 16
M  V30 25 1 26 18
M  V30 26 1 26 24
M  V30 27 1 27 15
M  V30 28 1 27 23
M  V30 29 1 28 7
M  V30 30 1 28 23
M  V30 31 1 28 26
M  V30 32 1 29 1
M  V30 33 1 30 1
M  V30 34 1 31 4
M  V30 35 1 32 7
M  V30 36 1 33 7
M  V30 37 1 8 34 CFG=3
M  V30 38 1 35 9
M  V30 39 1 36 9
M  V30 40 1 37 10
M  V30 41 1 38 10
M  V30 42 1 39 13
M  V30 43 1 15 40 CFG=1
M  V30 44 1 17 41 CFG=3
M  V30 45 1 42 18
M  V30 46 1 43 18
M  V30 47 1 44 18
M  V30 48 1 45 20
M  V30 49 1 46 20
M  V30 50 1 47 21
M  V30 51 1 48 23
M  V30 52 1 49 23
M  V30 53 1 50 25
M  V30 54 1 26 51 CFG=3
M  V30 55 1 52 27
M  V30 56 1 53 27
M  V30 57 1 28 54 CFG=1
M  V30 58 1 55 24
M  V30 END BOND
M  V30 END CTAB
M  END
>  <i_epik_Tot_Q>  (1) 
-1

>  <i_epik_Tot_abs_Q>  (1) 
1

>  <i_i_glide_confnum>  (1) 
32

>  <i_i_glide_lignum>  (1) 
160

>  <i_i_glide_posenum>  (1) 
338

>  <i_i_glide_rotatable_bonds>  (1) 
6

>  <i_lp_mmshare_version>  (1) 
72125

>  <i_m_source_file_index>  (1) 
80

>  <i_f3d_flags>  (1) 
0

>  <num_sample>  (1) 
100

>  <b_lp_Chiralities_Consistent>  (1) 
1

>  <r_epik_Charging_Adjusted_Penalty>  (1) 
0.11080769427664984

>  <r_epik_Ionization_Penalty>  (1) 
0.11081096683628129

>  <r_epik_Ionization_Penalty_Charging>  (1) 
0.00049387447544676805

>  <r_epik_Ionization_Penalty_Neutral>  (1) 
0.11031709236083452

>  <r_epik_State_Penalty>  (1) 
0.11031381980120307

>  <r_glide_ring_energy>  (1) 
0.00060166262151322434

>  <r_i_docking_score>  (1) 
-4.8699086243919565

>  <r_i_glide_ecoul>  (1) 
-1.2498510135253378

>  <r_i_glide_eff_state_penalty>  (1) 
0.11031381980120307

>  <r_i_glide_einternal>  (1) 
7.3323194705546673

>  <r_i_glide_emodel>  (1) 
-42.164006602640839

>  <r_i_glide_emodel_strain>  (1) 
1.2103055919977095

>  <r_i_glide_energy>  (1) 
-37.210375020676082

>  <r_i_glide_erotb>  (1) 
0.48016734467205424

>  <r_i_glide_esite>  (1) 
0

>  <r_i_glide_evdw>  (1) 
-35.960524007150745

>  <r_i_glide_gscore>  (1) 
-4.98022244419316

>  <r_i_glide_gscore_strain>  (1) 
0

>  <r_i_glide_hbond>  (1) 
0

>  <r_i_glide_ligand_efficiency>  (1) 
-0.17392530801399844

>  <r_i_glide_ligand_efficiency_ln>  (1) 
-1.1241178972400374

>  <r_i_glide_ligand_efficiency_sa>  (1) 
-0.52813967224538561

>  <r_i_glide_lipo>  (1) 
-1.7295817543444143

>  <r_i_glide_metal>  (1) 
-0

>  <r_i_glide_rewards>  (1) 
-1.7453041821344621

>  <r_lp_Energy>  (1) 
42.621707000000001

>  <s_epik_cmdline>  (1) 
J2VwaWtfcHl0aG9uJywgJy1waHQnLCAnMS4wJywgJy1waCcsICc3LjQnLCAnLXRuJywgJzgnLCAnLW1hJywgJzUwMCcsICctaW1hZScsICc8aW5maWxlLm1hZT4nLCAnLW9tYWUnLCAnPG91dGZpbGUubWFlPic=

>  <s_epik_input>  (1) 
Tz1DKFtPSF0pW0NASF0xW0NIMl1bQ0gyXVMvQzE9Ti9bQ0BASF0oW0NIM10pW0NASF0oW0NIMl1bQ0gyXTIpW0NIMl1bQ0gyXVtDQEBIXShbQ0BIXTIzKVtDQEhdM0M0PVtDSF1bQ0gyXUMoW09IXSk9QyhGKVtDSF09W0NIXTQ=

>  <s_glide_docking_method>  (1) 
confgen

>  <s_i_glide_gridfile>  (1) 
gpcr_drd2_6luq_protein_autoprepared_prepared

>  <s_lp_Force_Field>  (1) 
S-OPLS

>  <s_lp_Variant>  (1) 
DiffSBDD_79_num_sample_100-1

>  <s_m_source_file>  (1) 
generated__ligand_DiffSBDD_2026-05-06_prepared.sdf

>  <GenAI_Model>  (1) 
DiffSBDD

>  <Protein>  (1) 
generic_title2

$$$$
DiffSBDD_59_num_sample_100
     RDKit          3D

  0  0  0  0  0  0  0  0  0  0999 V3000
M  V30 BEGIN CTAB
M  V30 COUNTS 73 76 0 0 1
M  V30 BEGIN ATOM
M  V30 1 C 5.434783 4.697582 -12.349034 0
M  V30 2 N 6.485027 -0.661115 -17.969938 0
M  V30 3 C 5.020768 -0.522255 -18.059952 0
M  V30 4 C 7.118368 0.449100 -17.223091 0 CFG=1
M  V30 5 C 8.366646 6.320244 -12.292945 0
M  V30 6 C 6.888648 4.201192 -12.219014 0 CFG=2
M  V30 7 C 12.231954 7.988676 -3.325300 0
M  V30 8 C 10.319173 7.822851 -6.180616 0
M  V30 9 C 8.267084 4.998228 -10.236911 0
M  V30 10 C 11.359565 8.663315 -5.729101 0
M  V30 11 O 6.234848 1.502304 -13.121522 0
M  V30 12 O 12.936776 9.083004 -3.921284 0
M  V30 13 C 12.205061 9.231021 -6.691665 0
M  V30 14 C 9.188247 5.865446 -9.627236 0
M  V30 15 C 4.411925 -1.335919 -19.202809 0
M  V30 16 C 7.856952 5.203902 -11.569158 0
M  V30 17 C 10.912650 8.102098 -8.403467 0
M  V30 18 C 9.296520 7.186269 -11.678001 0
M  V30 19 N 10.097836 7.539750 -7.484271 0
M  V30 20 C 6.827770 -1.974926 -17.405471 0
M  V30 21 N 7.151819 1.809487 -15.165898 0
M  V30 22 C 7.928670 6.598462 -13.725603 0
M  V30 23 C 8.661276 0.392520 -17.330721 0
M  V30 24 O 6.788894 1.617887 -17.947649 0
M  V30 25 N 10.663749 7.862694 -9.778460 0
M  V30 26 C 6.909957 2.175488 -13.899577 0
M  V30 27 C 9.712206 6.971097 -10.345891 0
M  V30 28 C 4.234836 -2.800131 -18.864732 0
M  V30 29 C 11.978497 8.945005 -8.048775 0
M  V30 30 C 7.524409 3.503599 -13.453454 0
M  V30 31 C 7.571082 -4.336894 -17.942710 0
M  V30 32 C 11.550646 8.947745 -4.269982 0 CFG=2
M  V30 33 C 6.681480 -3.160764 -18.380306 0 CFG=1
M  V30 34 C 6.620923 0.587459 -15.755391 0
M  V30 35 C 5.238788 -3.608452 -18.501542 0
M  V30 36 H 5.037056 4.945035 -11.363935 0
M  V30 37 H 5.306005 5.582864 -12.963185 0
M  V30 38 H 4.793962 3.921992 -12.767769 0
M  V30 39 H 4.536061 -0.775034 -17.115658 0
M  V30 40 H 4.744483 0.509439 -18.270139 0
M  V30 41 H 6.791651 3.399879 -11.491661 0
M  V30 42 H 12.073893 8.093509 -2.253733 0
M  V30 43 H 12.518755 7.003939 -3.688795 0
M  V30 44 H 9.644355 7.364923 -5.475517 0
M  V30 45 H 7.878669 4.169301 -9.680187 0
M  V30 46 H 13.016543 9.878553 -6.394718 0
M  V30 47 H 9.497710 5.664083 -8.620959 0
M  V30 48 H 3.434832 -0.909490 -19.410378 0
M  V30 49 H 4.992799 -1.229639 -20.119910 0
M  V30 50 H 9.689470 8.026334 -12.231398 0
M  V30 51 H 7.866787 -1.981862 -17.091570 0
M  V30 52 H 6.234819 -2.152659 -16.508141 0
M  V30 53 H 7.708529 2.410065 -15.756414 0
M  V30 54 H 7.891229 7.675348 -13.890626 0
M  V30 55 H 8.634832 6.168377 -14.432914 0
M  V30 56 H 6.941088 6.245977 -13.987961 0
M  V30 57 H 9.098087 -0.372786 -16.691662 0
M  V30 58 H 8.982444 0.195599 -18.354334 0
M  V30 59 H 9.118224 1.335505 -17.028160 0
M  V30 60 H 6.551904 1.342613 -18.819860 0
M  V30 61 H 11.170339 8.443910 -10.426162 0
M  V30 62 H 3.230040 -3.193417 -18.926750 0
M  V30 63 H 12.612482 9.369302 -8.811495 0
M  V30 64 H 8.569196 3.285622 -13.227777 0
M  V30 65 H 7.530136 4.153086 -14.323788 0
M  V30 66 H 7.498735 -5.170130 -18.641825 0
M  V30 67 H 8.620314 -4.043530 -17.891695 0
M  V30 68 H 7.283258 -4.702289 -16.955924 0
M  V30 69 H 10.932989 9.763871 -3.899717 0
M  V30 70 H 7.018295 -2.848670 -19.369734 0
M  V30 71 H 5.532719 0.623229 -15.700495 0
M  V30 72 H 6.940569 -0.270215 -15.160738 0
M  V30 73 H 5.031364 -4.644338 -18.273460 0
M  V30 END ATOM
M  V30 BEGIN BOND
M  V30 1 1 3 2
M  V30 2 1 4 2
M  V30 3 1 6 1
M  V30 4 2 10 8
M  V30 5 1 12 7
M  V30 6 1 13 10
M  V30 7 2 14 9
M  V30 8 1 15 3
M  V30 9 2 16 5
M  V30 10 1 16 6
M  V30 11 1 16 9
M  V30 12 1 18 5
M  V30 13 1 19 8
M  V30 14 2 19 17
M  V30 15 1 20 2
M  V30 16 1 22 5
M  V30 17 1 23 4
M  V30 18 1 4 24 CFG=3
M  V30 19 1 25 17
M  V30 20 2 26 11
M  V30 21 1 26 21
M  V30 22 1 27 14
M  V30 23 2 27 18
M  V30 24 1 27 25
M  V30 25 1 28 15
M  V30 26 2 29 13
M  V30 27 1 29 17
M  V30 28 1 30 6
M  V30 29 1 30 26
M  V30 30 1 32 7
M  V30 31 1 32 10
M  V30 32 1 32 12
M  V30 33 1 33 20
M  V30 34 1 33 31
M  V30 35 1 34 4
M  V30 36 1 34 21
M  V30 37 2 35 28
M  V30 38 1 35 33
M  V30 39 1 36 1
M  V30 40 1 37 1
M  V30 41 1 38 1
M  V30 42 1 39 3
M  V30 43 1 40 3
M  V30 44 1 6 41 CFG=1
M  V30 45 1 42 7
M  V30 46 1 43 7
M  V30 47 1 44 8
M  V30 48 1 45 9
M  V30 49 1 46 13
M  V30 50 1 47 14
M  V30 51 1 48 15
M  V30 52 1 49 15
M  V30 53 1 50 18
M  V30 54 1 51 20
M  V30 55 1 52 20
M  V30 56 1 53 21
M  V30 57 1 54 22
M  V30 58 1 55 22
M  V30 59 1 56 22
M  V30 60 1 57 23
M  V30 61 1 58 23
M  V30 62 1 59 23
M  V30 63 1 60 24
M  V30 64 1 61 25
M  V30 65 1 62 28
M  V30 66 1 63 29
M  V30 67 1 64 30
M  V30 68 1 65 30
M  V30 69 1 66 31
M  V30 70 1 67 31
M  V30 71 1 68 31
M  V30 72 1 32 69 CFG=1
M  V30 73 1 33 70 CFG=3
M  V30 74 1 71 34
M  V30 75 1 72 34
M  V30 76 1 73 35
M  V30 END BOND
M  V30 END CTAB
M  END
>  <i_epik_Tot_Q>  (1) 
0

>  <i_epik_Tot_abs_Q>  (1) 
0

>  <i_i_glide_confnum>  (1) 
1203

>  <i_i_glide_lignum>  (1) 
117

>  <i_i_glide_posenum>  (1) 
59

>  <i_i_glide_rotatable_bonds>  (1) 
11

>  <i_lp_mmshare_version>  (1) 
72125

>  <i_m_source_file_index>  (1) 
60

>  <i_f3d_flags>  (1) 
0

>  <num_sample>  (1) 
100

>  <b_lp_Chiralities_Consistent>  (1) 
1

>  <r_epik_Charging_Adjusted_Penalty>  (1) 
0.21966515356122782

>  <r_epik_Ionization_Penalty>  (1) 
0.22519441393607559

>  <r_epik_Ionization_Penalty_Charging>  (1) 
0

>  <r_epik_Ionization_Penalty_Neutral>  (1) 
0.22519441393607559

>  <r_epik_State_Penalty>  (1) 
0.21966515356122782

>  <r_glide_ring_energy>  (1) 
0

>  <r_i_docking_score>  (1) 
-4.8482437932139817

>  <r_i_glide_ecoul>  (1) 
0.9124937892288032

>  <r_i_glide_eff_state_penalty>  (1) 
0.21966515356122782

>  <r_i_glide_einternal>  (1) 
15.342445587610314

>  <r_i_glide_emodel>  (1) 
-47.27923936615948

>  <r_i_glide_emodel_strain>  (1) 
0

>  <r_i_glide_energy>  (1) 
-46.822867467912758

>  <r_i_glide_erotb>  (1) 
0.88460327515387938

>  <r_i_glide_esite>  (1) 
-0.011154975032250318

>  <r_i_glide_evdw>  (1) 
-47.735361257141562

>  <r_i_glide_gscore>  (1) 
-5.0679089467752094

>  <r_i_glide_gscore_strain>  (1) 
0

>  <r_i_glide_hbond>  (1) 
0

>  <r_i_glide_ligand_efficiency>  (1) 
-0.1385212512346852

>  <r_i_glide_ligand_efficiency_ln>  (1) 
-1.0642971135840724

>  <r_i_glide_ligand_efficiency_sa>  (1) 
-0.45311219815894838

>  <r_i_glide_lipo>  (1) 
-2.6546364564947948

>  <r_i_glide_metal>  (1) 
-0

>  <r_i_glide_rewards>  (1) 
-1.0368267959292872

>  <r_lp_Energy>  (1) 
28.775382

>  <r_lp_tautomer_probability>  (1) 
0.99999977220005165

>  <s_epik_cmdline>  (1) 
J2VwaWtfcHl0aG9uJywgJy1waHQnLCAnMS4wJywgJy1waCcsICc3LjQnLCAnLXRuJywgJzgnLCAnLW1hJywgJzUwMCcsICctaW1hZScsICc8aW5maWxlLm1hZT4nLCAnLW9tYWUnLCAnPG91dGZpbGUubWFlPic=

>  <s_epik_input>  (1) 
W0NIMl0xW0NAQEhdKFtDSDNdKVtDSF09W0NIXVtDSDJdW0NIMl1OMVtDQEBdKFtDSDNdKShbT0hdKVtDSDJdW05IXUMoPU8pW0NIMl1bQ0BIXShbQ0gzXSljKGMyW0NIM10pW2NIXVtjSF1jKFtjSF0yKVtOSF1jKFtjSF1bY0hdMyluW2NIXWMzW0NASF00W0NIMl1PNA==

>  <s_glide_docking_method>  (1) 
confgen

>  <s_i_glide_gridfile>  (1) 
gpcr_drd2_6luq_protein_autoprepared_prepared

>  <s_lp_Force_Field>  (1) 
S-OPLS

>  <s_lp_Variant>  (1) 
DiffSBDD_59_num_sample_100-1

>  <s_m_source_file>  (1) 
generated__ligand_DiffSBDD_2026-05-06_prepared.sdf

>  <GenAI_Model>  (1) 
DiffSBDD

>  <Protein>  (1) 
generic_title2

$$$$
DiffSBDD_4_num_sample_100
     RDKit          3D

  0  0  0  0  0  0  0  0  0  0999 V3000
M  V30 BEGIN CTAB
M  V30 COUNTS 57 60 0 0 1
M  V30 BEGIN ATOM
M  V30 1 C 9.235298 6.050573 -9.146266 0
M  V30 2 C 5.853032 7.279844 -20.271502 0
M  V30 3 C 8.412221 5.372322 -11.504559 0 CFG=2
M  V30 4 F 7.221873 4.067261 -20.424024 0
M  V30 5 C 5.674575 6.346675 -18.028420 0
M  V30 6 C 9.115727 4.748857 -12.735453 0
M  V30 7 C 5.395503 7.326738 -18.905676 0
M  V30 8 C 5.194155 6.398653 -16.587103 0
M  V30 9 C 8.115296 3.987198 -13.634000 0
M  V30 10 C 7.371779 5.954172 -15.197377 0 CFG=2
M  V30 11 O 10.010466 6.682672 -6.951972 0
M  V30 12 C 7.212061 6.227791 -11.961152 0
M  V30 13 C 6.251667 5.441032 -12.870546 0
M  V30 14 C 8.112006 5.369252 -16.433864 0
M  V30 15 C 8.181004 5.148098 -8.515928 0
M  V30 16 F 8.519609 5.532717 -19.537874 0
M  V30 17 C 11.172877 7.769336 -10.269912 0
M  V30 18 C 6.465156 5.095286 -18.441880 0 CFG=2
M  V30 19 C 11.067975 7.645942 -8.875078 0
M  V30 20 C 6.947370 4.878837 -14.133208 0 CFG=2
M  V30 21 C 9.345403 6.168638 -10.567027 0
M  V30 22 C 6.251375 6.947256 -15.619755 0
M  V30 23 C 10.315320 7.037622 -11.115898 0
M  V30 24 C 7.292626 4.416951 -17.324125 0
M  V30 25 C 7.243494 5.240338 -19.790789 0
M  V30 26 C 6.690115 6.326086 -20.696595 0
M  V30 27 C 10.104792 6.791997 -8.310979 0
M  V30 28 H 5.517650 8.035426 -20.966488 0
M  V30 29 H 8.027479 4.504907 -10.973984 0
M  V30 30 H 9.619850 5.502633 -13.336958 0
M  V30 31 H 9.892063 4.061557 -12.398033 0
M  V30 32 H 4.812686 8.173787 -18.578005 0
M  V30 33 H 4.865194 5.420130 -16.268467 0
M  V30 34 H 4.315921 7.044553 -16.545899 0
M  V30 35 H 7.701154 3.157602 -13.059053 0
M  V30 36 H 8.634835 3.512326 -14.462580 0
M  V30 37 H 8.111130 6.574119 -14.695775 0
M  V30 38 H 10.560429 7.291522 -6.487042 0
M  V30 39 H 6.654892 6.568519 -11.091845 0
M  V30 40 H 7.561112 7.127076 -12.469297 0
M  V30 41 H 5.849795 4.605980 -12.294314 0
M  V30 42 H 5.380148 6.043423 -13.116645 0
M  V30 43 H 8.488728 6.169246 -17.064515 0
M  V30 44 H 9.014122 4.856584 -16.104528 0
M  V30 45 H 7.276679 5.055334 -9.111823 0
M  V30 46 H 8.598460 4.169302 -8.304789 0
M  V30 47 H 7.839338 5.561100 -7.566851 0
M  V30 48 H 11.913566 8.429961 -10.691761 0
M  V30 49 H 5.664194 4.389621 -18.669851 0
M  V30 50 H 11.728972 8.211296 -8.235188 0
M  V30 51 H 6.219895 4.221425 -14.606152 0
M  V30 52 H 5.751047 7.345828 -14.740427 0
M  V30 53 H 6.678002 7.837251 -16.077797 0
M  V30 54 H 10.403108 7.144145 -12.185571 0
M  V30 55 H 6.636341 3.806087 -16.711432 0
M  V30 56 H 7.970414 3.700249 -17.789112 0
M  V30 57 H 7.018064 6.317212 -21.725912 0
M  V30 END ATOM
M  V30 BEGIN BOND
M  V30 1 1 6 3
M  V30 2 1 7 2
M  V30 3 2 7 5
M  V30 4 1 8 5
M  V30 5 1 9 6
M  V30 6 1 12 3
M  V30 7 1 13 12
M  V30 8 1 14 10
M  V30 9 1 15 1
M  V30 10 1 18 5
M  V30 11 2 19 17
M  V30 12 1 20 9
M  V30 13 1 20 10
M  V30 14 1 20 13
M  V30 15 1 21 1
M  V30 16 1 21 3
M  V30 17 1 22 8
M  V30 18 1 22 10
M  V30 19 1 23 17
M  V30 20 2 23 21
M  V30 21 1 24 14
M  V30 22 1 24 18
M  V30 23 1 25 4
M  V30 24 1 25 16
M  V30 25 1 25 18
M  V30 26 2 26 2
M  V30 27 1 26 25
M  V30 28 2 27 1
M  V30 29 1 27 11
M  V30 30 1 27 19
M  V30 31 1 28 2
M  V30 32 1 3 29 CFG=1
M  V30 33 1 30 6
M  V30 34 1 31 6
M  V30 35 1 32 7
M  V30 36 1 33 8
M  V30 37 1 34 8
M  V30 38 1 35 9
M  V30 39 1 36 9
M  V30 40 1 10 37 CFG=1
M  V30 41 1 38 11
M  V30 42 1 39 12
M  V30 43 1 40 12
M  V30 44 1 41 13
M  V30 45 1 42 13
M  V30 46 1 43 14
M  V30 47 1 44 14
M  V30 48 1 45 15
M  V30 49 1 46 15
M  V30 50 1 47 15
M  V30 51 1 48 17
M  V30 52 1 18 49 CFG=3
M  V30 53 1 50 19
M  V30 54 1 20 51 CFG=3
M  V30 55 1 52 22
M  V30 56 1 53 22
M  V30 57 1 54 23
M  V30 58 1 55 24
M  V30 59 1 56 24
M  V30 60 1 57 26
M  V30 END BOND
M  V30 END CTAB
M  END
>  <i_epik_Tot_Q>  (1) 
0

>  <i_epik_Tot_abs_Q>  (1) 
0

>  <i_i_glide_confnum>  (1) 
12

>  <i_i_glide_lignum>  (1) 
7

>  <i_i_glide_posenum>  (1) 
89

>  <i_i_glide_rotatable_bonds>  (1) 
3

>  <i_lp_mmshare_version>  (1) 
72125

>  <i_m_source_file_index>  (1) 
5

>  <i_f3d_flags>  (1) 
0

>  <num_sample>  (1) 
100

>  <b_lp_Chiralities_Consistent>  (1) 
1

>  <r_epik_Charging_Adjusted_Penalty>  (1) 
0

>  <r_epik_Ionization_Penalty>  (1) 
0.00041943368611793887

>  <r_epik_Ionization_Penalty_Charging>  (1) 
0

>  <r_epik_Ionization_Penalty_Neutral>  (1) 
0.00041943368611793887

>  <r_epik_State_Penalty>  (1) 
-0

>  <r_glide_ring_energy>  (1) 
0

>  <r_i_docking_score>  (1) 
-4.8399317358715299

>  <r_i_glide_ecoul>  (1) 
1.0044763846563023

>  <r_i_glide_eff_state_penalty>  (1) 
-0

>  <r_i_glide_einternal>  (1) 
0.60536625714427572

>  <r_i_glide_emodel>  (1) 
-31.993419570338958

>  <r_i_glide_emodel_strain>  (1) 
0.21062343015354656

>  <r_i_glide_energy>  (1) 
-25.687777144030072

>  <r_i_glide_erotb>  (1) 
0.27839532851763049

>  <r_i_glide_esite>  (1) 
0

>  <r_i_glide_evdw>  (1) 
-26.692253528686376

>  <r_i_glide_gscore>  (1) 
-4.8399317358715299

>  <r_i_glide_gscore_strain>  (1) 
0

>  <r_i_glide_hbond>  (1) 
0

>  <r_i_glide_ligand_efficiency>  (1) 
-0.17925673095820482

>  <r_i_glide_ligand_efficiency_ln>  (1) 
-1.1266563156001028

>  <r_i_glide_ligand_efficiency_sa>  (1) 
-0.53777019287461458

>  <r_i_glide_lipo>  (1) 
-2.1789447069425947

>  <r_i_glide_metal>  (1) 
-0

>  <r_i_glide_rewards>  (1) 
-1.7554411387106921

>  <r_lp_Energy>  (1) 
44.730646999999998

>  <r_lp_tautomer_probability>  (1) 
1

>  <s_epik_cmdline>  (1) 
J2VwaWtfcHl0aG9uJywgJy1waHQnLCAnMS4wJywgJy1waCcsICc3LjQnLCAnLXRuJywgJzgnLCAnLW1hJywgJzUwMCcsICctaW1hZScsICc8aW5maWxlLm1hZT4nLCAnLW9tYWUnLCAnPG91dGZpbGUubWFlPic=

>  <s_epik_input>  (1) 
W09IXWMxW2NIXVtjSF1bY0hdYyhjMVtDSDNdKVtDQEBIXTJbQ0gyXVtDSDJdW0NAQEhdKFtDSDJdW0NIMl0yKVtDQEhdKFtDSDJdW0NIMl0zKVtDSDJdW0NIMl1bQ0BASF0oQzM9NClDKEYpKEYpW0NIXT1bQ0hdW0NIXTQ=

>  <s_glide_docking_method>  (1) 
confgen

>  <s_i_glide_gridfile>  (1) 
gpcr_drd2_6luq_protein_autoprepared_prepared

>  <s_lp_Force_Field>  (1) 
S-OPLS

>  <s_lp_Variant>  (1) 
DiffSBDD_4_num_sample_100-1

>  <s_m_source_file>  (1) 
generated__ligand_DiffSBDD_2026-05-06_prepared.sdf

>  <GenAI_Model>  (1) 
DiffSBDD

>  <Protein>  (1) 
generic_title2

$$$$
DiffSBDD_73_num_sample_100
     RDKit          3D

  0  0  0  0  0  0  0  0  0  0999 V3000
M  V30 BEGIN CTAB
M  V30 COUNTS 42 44 0 0 1
M  V30 BEGIN ATOM
M  V30 1 C 10.062509 6.978398 -10.789536 0 CFG=1
M  V30 2 C 7.034812 6.120042 -14.987898 0
M  V30 3 O 9.434896 8.113722 -10.949412 0 CHG=-1
M  V30 4 C 6.813224 5.596547 -17.249717 0
M  V30 5 C 9.495799 6.483646 -8.376486 0
M  V30 6 C 8.263388 5.169660 -10.106659 0
M  V30 7 N 10.516779 6.943476 -9.353443 0 CFG=2 CHG=1
M  V30 8 C 8.452957 5.866654 -12.532313 0
M  V30 9 C 7.970480 4.792218 -17.250847 0
M  V30 10 C 8.217043 5.322643 -14.899481 0
M  V30 11 N 6.354349 6.241153 -16.154743 0
M  V30 12 C 8.959102 5.103424 -8.750791 0
M  V30 13 C 12.554132 8.398465 -9.595318 0
M  V30 14 C 6.590989 6.782068 -13.823576 0
M  V30 15 C 11.236499 8.149175 -8.859360 0
M  V30 16 C 8.425310 4.107599 -18.479500 0
M  V30 17 C 8.682660 4.656197 -16.048276 0
M  V30 18 C 7.291915 6.659563 -12.608850 0
M  V30 19 C 8.915905 5.198420 -13.679119 0
M  V30 20 C 9.199341 5.725914 -11.200753 0 CFG=1
M  V30 21 N 7.834840 4.183302 -19.593151 0
M  V30 22 H 10.979739 6.835304 -11.361122 0
M  V30 23 H 6.235008 5.725225 -18.153140 0
M  V30 24 H 8.686458 7.207545 -8.292216 0
M  V30 25 H 9.944607 6.412052 -7.385283 0
M  V30 26 H 7.362932 5.769301 -10.005278 0
M  V30 27 H 7.915385 4.177836 -10.394059 0
M  V30 28 H 8.251798 4.764047 -7.993124 0
M  V30 29 H 9.769806 4.374410 -8.773881 0
M  V30 30 H 13.034922 9.276776 -9.173681 0
M  V30 31 H 13.241705 7.560236 -9.491619 0
M  V30 32 H 12.401063 8.589521 -10.657190 0
M  V30 33 H 5.701126 7.391450 -13.864646 0
M  V30 34 H 10.592059 9.027202 -8.909461 0
M  V30 35 H 11.472474 8.018740 -7.802835 0
M  V30 36 H 9.332686 3.503954 -18.388954 0
M  V30 37 H 9.574907 4.049969 -16.005226 0
M  V30 38 H 6.935494 7.177865 -11.728625 0
M  V30 39 H 9.806961 4.588534 -13.625657 0
M  V30 40 H 9.914282 4.916992 -11.353055 0
M  V30 41 H 8.285570 3.647161 -20.321667 0
M  V30 42 H 11.200337 6.204599 -9.333571 0
M  V30 END ATOM
M  V30 BEGIN BOND
M  V30 1 1 3 1
M  V30 2 1 7 1
M  V30 3 1 7 5
M  V30 4 1 9 4
M  V30 5 1 10 2
M  V30 6 1 11 2
M  V30 7 2 11 4
M  V30 8 1 12 5
M  V30 9 1 12 6
M  V30 10 2 14 2
M  V30 11 1 15 7
M  V30 12 1 15 13
M  V30 13 1 16 9
M  V30 14 2 17 9
M  V30 15 1 17 10
M  V30 16 2 18 8
M  V30 17 1 18 14
M  V30 18 1 19 8
M  V30 19 2 19 10
M  V30 20 1 20 1
M  V30 21 1 20 6
M  V30 22 1 20 8
M  V30 23 2 21 16
M  V30 24 1 1 22 CFG=3
M  V30 25 1 23 4
M  V30 26 1 24 5
M  V30 27 1 25 5
M  V30 28 1 26 6
M  V30 29 1 27 6
M  V30 30 1 28 12
M  V30 31 1 29 12
M  V30 32 1 30 13
M  V30 33 1 31 13
M  V30 34 1 32 13
M  V30 35 1 33 14
M  V30 36 1 34 15
M  V30 37 1 35 15
M  V30 38 1 36 16
M  V30 39 1 37 17
M  V30 40 1 38 18
M  V30 41 1 39 19
M  V30 42 1 20 40 CFG=3
M  V30 43 1 41 21
M  V30 44 1 7 42 CFG=3
M  V30 END BOND
M  V30 END CTAB
M  END
>  <i_epik_Tot_Q>  (1) 
0

>  <i_epik_Tot_abs_Q>  (1) 
2

>  <i_i_glide_confnum>  (1) 
3

>  <i_i_glide_lignum>  (1) 
147

>  <i_i_glide_posenum>  (1) 
198

>  <i_i_glide_rotatable_bonds>  (1) 
3

>  <i_lp_mmshare_version>  (1) 
72125

>  <i_m_source_file_index>  (1) 
74

>  <i_f3d_flags>  (1) 
0

>  <num_sample>  (1) 
100

>  <b_lp_Chiralities_Consistent>  (1) 
1

>  <r_epik_Charging_Adjusted_Penalty>  (1) 
0.16727262916870361

>  <r_epik_Ionization_Penalty>  (1) 
0.055388618387316971

>  <r_epik_Ionization_Penalty_Charging>  (1) 
0.05537307808352282

>  <r_epik_Ionization_Penalty_Neutral>  (1) 
1.5540303794148587e-05

>  <r_epik_State_Penalty>  (1) 
0.11189955108518078

>  <r_glide_ring_energy>  (1) 
0

>  <r_i_docking_score>  (1) 
-4.8380531451680167

>  <r_i_glide_ecoul>  (1) 
-0.88790628199919741

>  <r_i_glide_eff_state_penalty>  (1) 
0.11189955108518078

>  <r_i_glide_einternal>  (1) 
2.1448784372974146

>  <r_i_glide_emodel>  (1) 
-36.847909585300229

>  <r_i_glide_emodel_strain>  (1) 
0.47983851492266183

>  <r_i_glide_energy>  (1) 
-28.266488447004797

>  <r_i_glide_erotb>  (1) 
0.22551580141899327

>  <r_i_glide_esite>  (1) 
-0.094214137614272095

>  <r_i_glide_evdw>  (1) 
-27.3785821650056

>  <r_i_glide_gscore>  (1) 
-4.949952696253197

>  <r_i_glide_gscore_strain>  (1) 
0

>  <r_i_glide_hbond>  (1) 
0

>  <r_i_glide_ligand_efficiency>  (1) 
-0.23038348310323889

>  <r_i_glide_ligand_efficiency_ln>  (1) 
-1.1961988639359005

>  <r_i_glide_ligand_efficiency_sa>  (1) 
-0.63561056137241723

>  <r_i_glide_lipo>  (1) 
-1.2524174348712862

>  <r_i_glide_metal>  (1) 
-0

>  <r_i_glide_rewards>  (1) 
-2.3267218746364726

>  <r_lp_Energy>  (1) 
44.226918999999995

>  <s_epik_Chemistry_Notes>  (1) 
This compound has an imine and may undergo hydrolysis. This compound contains an acetal/aminal-like group ( X-CH(R)-Y where X, Y are N, S, or O) that may be acid/base labile, releasing an aldehyde.

>  <s_epik_cmdline>  (1) 
J2VwaWtfcHl0aG9uJywgJy1waHQnLCAnMS4wJywgJy1waCcsICc3LjQnLCAnLXRuJywgJzgnLCAnLW1hJywgJzUwMCcsICctaW1hZScsICc8aW5maWxlLm1hZT4nLCAnLW9tYWUnLCAnPG91dGZpbGUubWFlPic=

>  <s_epik_input>  (1) 
W09IXVtDQEhdMU4oW0NIMl1bQ0gzXSlbQ0gyXVtDSDJdW0NIMl1bQ0BIXTFjKFtjSF1bY0hdMilbY0hdYyhjMjMpW2NIXWMoW2NIXW4zKS9bQ0hdPU4vW0hd

>  <s_glide_docking_method>  (1) 
confgen

>  <s_i_glide_gridfile>  (1) 
gpcr_drd2_6luq_protein_autoprepared_prepared

>  <s_lp_Force_Field>  (1) 
S-OPLS

>  <s_lp_Variant>  (1) 
DiffSBDD_73_num_sample_100-2

>  <s_m_source_file>  (1) 
generated__ligand_DiffSBDD_2026-05-06_prepared.sdf

>  <GenAI_Model>  (1) 
DiffSBDD

>  <Protein>  (1) 
generic_title2

$$$$
DiffSBDD_82_num_sample_100
     RDKit          3D

  0  0  0  0  0  0  0  0  0  0999 V3000
M  V30 BEGIN CTAB
M  V30 COUNTS 64 68 0 0 1
M  V30 BEGIN ATOM
M  V30 1 C 11.185661 8.263024 -8.558487 0
M  V30 2 N 10.392083 2.772368 -17.675026 0
M  V30 3 C 8.965591 6.294761 -12.456882 0
M  V30 4 C 9.656656 5.869635 -8.182524 0
M  V30 5 O 7.507844 4.569303 -9.543221 0
M  V30 6 C 9.946223 8.216014 -7.650072 0
M  V30 7 O 10.122530 3.908380 -19.624204 0
M  V30 8 C 7.394195 3.979903 -13.731794 0 CFG=2
M  V30 9 C 7.234576 1.585330 -14.862998 0
M  V30 10 C 8.338521 5.237780 -18.679171 0
M  V30 11 F 12.173383 9.369372 -6.646353 0
M  V30 12 C 8.332450 3.165167 -16.529385 0 CFG=1
M  V30 13 C 7.922044 4.626065 -16.245916 0 CFG=1
M  V30 14 F 7.034835 6.569122 -17.229842 0
M  V30 15 C 7.350029 5.304744 -17.519605 0
M  V30 16 F 12.374058 7.998966 -10.524332 0
M  V30 17 C 6.996072 4.675834 -12.380529 0 CFG=2
M  V30 18 C 9.363440 6.094885 -9.669174 0
M  V30 19 C 5.690038 5.483285 -12.439193 0
M  V30 20 C 10.186156 6.962825 -10.442102 0
M  V30 21 C 8.318351 5.369342 -10.293818 0
M  V30 22 O 12.234833 8.969300 -8.037302 0
M  V30 23 C 10.919544 3.260987 -18.729190 0
M  V30 24 C 8.883005 3.849981 -19.000205 0 CFG=2
M  V30 25 C 7.028342 4.817512 -14.994699 0
M  V30 26 C 8.119587 5.470475 -11.693573 0
M  V30 27 C 12.375246 3.189040 -19.075353 0
M  V30 28 C 7.268432 2.073836 -16.323873 0
M  V30 29 N 9.075241 3.043951 -17.789163 0
M  V30 30 C 8.717235 6.331898 -19.365758 0
M  V30 31 C 11.258513 7.763239 -9.811579 0
M  V30 32 C 6.723897 2.578143 -13.799934 0
M  V30 33 F 6.234589 4.686485 -17.891664 0
M  V30 34 C 9.992554 7.032174 -11.837956 0
M  V30 35 N 9.409074 6.936780 -7.250202 0
M  V30 36 H 8.824807 6.368248 -13.519627 0
M  V30 37 H 10.709251 5.599539 -8.099849 0
M  V30 38 H 9.127742 4.990430 -7.817454 0
M  V30 39 H 6.590577 4.794986 -9.616301 0
M  V30 40 H 10.033096 8.837199 -6.761054 0
M  V30 41 H 9.155586 8.692989 -8.231907 0
M  V30 42 H 8.472277 3.817434 -13.700051 0
M  V30 43 H 6.610424 0.691976 -14.815119 0
M  V30 44 H 8.231124 1.245494 -14.576626 0
M  V30 45 H 9.034839 2.952242 -15.747976 0
M  V30 46 H 8.853540 5.150159 -16.022193 0
M  V30 47 H 6.776267 3.856718 -11.700188 0
M  V30 48 H 5.327800 5.715076 -11.436973 0
M  V30 49 H 4.918454 4.911595 -12.951610 0
M  V30 50 H 5.813345 6.431539 -12.962322 0
M  V30 51 H 8.170392 3.324041 -19.636831 0
M  V30 52 H 7.067781 5.878770 -14.757329 0
M  V30 53 H 5.986904 4.636486 -15.251591 0
M  V30 54 H 12.933721 2.632524 -18.321833 0
M  V30 55 H 12.802547 4.189731 -19.140200 0
M  V30 56 H 12.518976 2.695381 -20.036066 0
M  V30 57 H 6.284677 2.366264 -16.674387 0
M  V30 58 H 7.537296 1.210363 -16.934545 0
M  V30 59 H 8.325759 7.307801 -19.121283 0
M  V30 60 H 9.423119 6.261885 -20.180433 0
M  V30 61 H 6.860431 2.064948 -12.846747 0
M  V30 62 H 5.648604 2.704408 -13.891647 0
M  V30 63 H 10.626000 7.668078 -12.435938 0
M  V30 64 H 8.406457 7.004812 -7.091255 0
M  V30 END ATOM
M  V30 BEGIN BOND
M  V30 1 1 6 1
M  V30 2 1 13 12
M  V30 3 1 15 10
M  V30 4 1 15 13
M  V30 5 1 15 14
M  V30 6 1 17 8
M  V30 7 1 18 4
M  V30 8 1 19 17
M  V30 9 2 20 18
M  V30 10 1 21 5
M  V30 11 1 21 18
M  V30 12 1 22 1
M  V30 13 1 22 11
M  V30 14 2 23 2
M  V30 15 1 23 7
M  V30 16 1 24 7
M  V30 17 1 24 10
M  V30 18 1 25 8
M  V30 19 1 25 13
M  V30 20 1 26 3
M  V30 21 1 26 17
M  V30 22 2 26 21
M  V30 23 1 27 23
M  V30 24 1 28 9
M  V30 25 1 28 12
M  V30 26 1 29 2
M  V30 27 1 29 12
M  V30 28 1 29 24
M  V30 29 2 30 10
M  V30 30 2 31 1
M  V30 31 1 31 16
M  V30 32 1 31 20
M  V30 33 1 32 8
M  V30 34 1 32 9
M  V30 35 1 33 15
M  V30 36 2 34 3
M  V30 37 1 34 20
M  V30 38 1 35 4
M  V30 39 1 35 6
M  V30 40 1 36 3
M  V30 41 1 37 4
M  V30 42 1 38 4
M  V30 43 1 39 5
M  V30 44 1 40 6
M  V30 45 1 41 6
M  V30 46 1 8 42 CFG=1
M  V30 47 1 43 9
M  V30 48 1 44 9
M  V30 49 1 12 45 CFG=1
M  V30 50 1 13 46 CFG=1
M  V30 51 1 17 47 CFG=1
M  V30 52 1 48 19
M  V30 53 1 49 19
M  V30 54 1 50 19
M  V30 55 1 24 51 CFG=3
M  V30 56 1 52 25
M  V30 57 1 53 25
M  V30 58 1 54 27
M  V30 59 1 55 27
M  V30 60 1 56 27
M  V30 61 1 57 28
M  V30 62 1 58 28
M  V30 63 1 59 30
M  V30 64 1 60 30
M  V30 65 1 61 32
M  V30 66 1 62 32
M  V30 67 1 63 34
M  V30 68 1 64 35
M  V30 END BOND
M  V30 END CTAB
M  END
>  <i_epik_Tot_Q>  (1) 
0

>  <i_epik_Tot_abs_Q>  (1) 
0

>  <i_i_glide_confnum>  (1) 
3

>  <i_i_glide_lignum>  (1) 
168

>  <i_i_glide_posenum>  (1) 
61

>  <i_i_glide_rotatable_bonds>  (1) 
4

>  <i_lp_mmshare_version>  (1) 
72125

>  <i_m_source_file_index>  (1) 
83

>  <i_f3d_flags>  (1) 
0

>  <num_sample>  (1) 
100

>  <b_lp_Chiralities_Consistent>  (1) 
1

>  <r_epik_Charging_Adjusted_Penalty>  (1) 
0.046558445642634526

>  <r_epik_Ionization_Penalty>  (1) 
0.046507495434493687

>  <r_epik_Ionization_Penalty_Charging>  (1) 
0

>  <r_epik_Ionization_Penalty_Neutral>  (1) 
0.046507495434493687

>  <r_epik_State_Penalty>  (1) 
0.046558445642634526

>  <r_glide_ring_energy>  (1) 
0

>  <r_i_docking_score>  (1) 
-4.8368670050449882

>  <r_i_glide_ecoul>  (1) 
-2.2503491687459656

>  <r_i_glide_eff_state_penalty>  (1) 
0.046558445642634526

>  <r_i_glide_einternal>  (1) 
4.467172627142471

>  <r_i_glide_emodel>  (1) 
-38.193559998688002

>  <r_i_glide_emodel_strain>  (1) 
1.6019792425559132

>  <r_i_glide_energy>  (1) 
-33.089985924504887

>  <r_i_glide_erotb>  (1) 
0.1660487774470758

>  <r_i_glide_esite>  (1) 
0

>  <r_i_glide_evdw>  (1) 
-30.839636755758921

>  <r_i_glide_gscore>  (1) 
-4.8834254506876231

>  <r_i_glide_gscore_strain>  (1) 
0

>  <r_i_glide_hbond>  (1) 
-0.21095456993273629

>  <r_i_glide_ligand_efficiency>  (1) 
-0.13819620014414252

>  <r_i_glide_ligand_efficiency_ln>  (1) 
-1.0617996560867689

>  <r_i_glide_ligand_efficiency_sa>  (1) 
-0.45204893448758421

>  <r_i_glide_lipo>  (1) 
-1.6278960810130227

>  <r_i_glide_metal>  (1) 
-0

>  <r_i_glide_rewards>  (1) 
-1.3310893640890991

>  <r_lp_Energy>  (1) 
56.444668

>  <r_lp_tautomer_probability>  (1) 
0.99999999486000002

>  <s_epik_Chemistry_Notes>  (1) 
This compound has an imine and may undergo hydrolysis. This compound contains an acetal/aminal-like group ( X-CH(R)-Y where X, Y are N, S, or O) that may be acid/base labile, releasing an aldehyde.

>  <s_epik_cmdline>  (1) 
J2VwaWtfcHl0aG9uJywgJy1waHQnLCAnMS4wJywgJy1waCcsICc3LjQnLCAnLXRuJywgJzgnLCAnLW1hJywgJzUwMCcsICctaW1hZScsICc8aW5maWxlLm1hZT4nLCAnLW9tYWUnLCAnPG91dGZpbGUubWFlPic=

>  <s_epik_input>  (1) 
W0NIMl0xW05IXVtDSDJdQyhPRik9QyhGKWMoYzEyKVtjSF1bY0hdYyhjMltPSF0pW0NASF0oW0NIM10pW0NAQEhdKFtDSDJdW0NIMl1bQ0gyXTMpW0NIMl1bQ0BASF0oW0NAQEhdMzQpQyhGKShGKUMoPVtDSDJdKVtDQEBIXTVONE49QyhPNSlbQ0gzXQ==

>  <s_glide_docking_method>  (1) 
confgen

>  <s_i_glide_gridfile>  (1) 
gpcr_drd2_6luq_protein_autoprepared_prepared

>  <s_lp_Force_Field>  (1) 
S-OPLS

>  <s_lp_Variant>  (1) 
DiffSBDD_82_num_sample_100-2

>  <s_m_source_file>  (1) 
generated__ligand_DiffSBDD_2026-05-06_prepared.sdf

>  <GenAI_Model>  (1) 
DiffSBDD

>  <Protein>  (1) 
generic_title2

$$$$
DiffSBDD_82_num_sample_100
     RDKit          3D

  0  0  0  0  0  0  0  0  0  0999 V3000
M  V30 BEGIN CTAB
M  V30 COUNTS 64 68 0 0 1
M  V30 BEGIN ATOM
M  V30 1 C 11.115732 8.251653 -8.694016 0
M  V30 2 N 10.214624 1.497860 -17.772392 0
M  V30 3 C 9.092801 6.143178 -12.634334 0
M  V30 4 C 9.526538 5.891533 -8.308742 0
M  V30 5 O 7.434844 4.569305 -9.746299 0
M  V30 6 C 9.831910 8.253102 -7.853344 0
M  V30 7 O 10.121694 2.569137 -19.774234 0
M  V30 8 C 7.508984 3.696882 -13.824336 0 CFG=2
M  V30 9 C 6.978523 1.264827 -14.796473 0
M  V30 10 C 8.766425 4.340742 -18.833619 0
M  V30 11 F 12.032978 9.370409 -6.758026 0
M  V30 12 C 8.371390 2.441942 -16.562747 0 CFG=1
M  V30 13 C 8.257625 3.977874 -16.362185 0 CFG=1
M  V30 14 F 7.834815 6.013951 -17.465904 0
M  V30 15 C 7.841448 4.696747 -17.676678 0
M  V30 16 F 12.402561 7.897521 -10.580479 0
M  V30 17 C 7.070551 4.582916 -12.601798 0 CFG=2
M  V30 18 C 9.318244 6.065751 -9.819568 0
M  V30 19 C 5.847000 5.484171 -12.863612 0
M  V30 20 C 10.199969 6.886710 -10.577921 0
M  V30 21 C 8.299470 5.329750 -10.476215 0
M  V30 22 O 12.144140 8.969300 -8.145714 0
M  V30 23 C 10.780494 1.779140 -18.880531 0
M  V30 24 C 8.944157 2.851975 -19.094248 0 CFG=2
M  V30 25 C 7.350252 4.427284 -15.186431 0
M  V30 26 C 8.184010 5.373046 -11.887705 0
M  V30 27 C 12.140896 1.309317 -19.294359 0
M  V30 28 C 7.100033 1.640751 -16.286605 0
M  V30 29 N 9.008713 2.097174 -17.840317 0
M  V30 30 C 9.395990 5.278157 -19.567156 0
M  V30 31 C 11.248308 7.701157 -9.920182 0
M  V30 32 C 6.654935 2.396492 -13.800841 0
M  V30 33 F 6.599526 4.339236 -17.996944 0
M  V30 34 C 10.093978 6.892093 -11.985523 0
M  V30 35 N 9.281731 6.993985 -7.415786 0
M  V30 36 H 9.020030 6.169300 -13.707152 0
M  V30 37 H 10.566019 5.590043 -8.172096 0
M  V30 38 H 8.954483 5.043462 -7.935032 0
M  V30 39 H 6.980233 5.081171 -9.091679 0
M  V30 40 H 9.876808 8.921060 -6.995756 0
M  V30 41 H 9.071114 8.697464 -8.497295 0
M  V30 42 H 8.552226 3.414277 -13.676277 0
M  V30 43 H 6.196507 0.509929 -14.701594 0
M  V30 44 H 7.890533 0.758786 -14.475546 0
M  V30 45 H 9.034839 2.080073 -15.795967 0
M  V30 46 H 9.266323 4.322986 -16.127746 0
M  V30 47 H 6.711431 3.867665 -11.866726 0
M  V30 48 H 5.464378 5.891902 -11.927003 0
M  V30 49 H 5.034818 4.929936 -13.332821 0
M  V30 50 H 6.090068 6.332521 -13.502959 0
M  V30 51 H 8.088714 2.481894 -19.660917 0
M  V30 52 H 7.529866 5.491136 -15.052736 0
M  V30 53 H 6.306089 4.375345 -15.490052 0
M  V30 54 H 12.578163 0.655128 -18.539174 0
M  V30 55 H 12.812230 2.155967 -19.436437 0
M  V30 56 H 12.088231 0.754638 -20.231054 0
M  V30 57 H 6.234839 2.169293 -16.660980 0
M  V30 58 H 7.141498 0.705905 -16.847837 0
M  V30 59 H 9.261892 6.330058 -19.363586 0
M  V30 60 H 10.051934 5.002131 -20.379732 0
M  V30 61 H 6.732750 1.940311 -12.812713 0
M  V30 62 H 5.607787 2.671040 -13.891652 0
M  V30 63 H 10.775123 7.486177 -12.572042 0
M  V30 64 H 8.281134 7.080805 -7.253833 0
M  V30 END ATOM
M  V30 BEGIN BOND
M  V30 1 1 6 1
M  V30 2 1 13 12
M  V30 3 1 15 10
M  V30 4 1 15 13
M  V30 5 1 15 14
M  V30 6 1 17 8
M  V30 7 1 18 4
M  V30 8 1 19 17
M  V30 9 2 20 18
M  V30 10 1 21 5
M  V30 11 1 21 18
M  V30 12 1 22 1
M  V30 13 1 22 11
M  V30 14 2 23 2
M  V30 15 1 23 7
M  V30 16 1 24 7
M  V30 17 1 24 10
M  V30 18 1 25 8
M  V30 19 1 25 13
M  V30 20 1 26 3
M  V30 21 1 26 17
M  V30 22 2 26 21
M  V30 23 1 27 23
M  V30 24 1 28 9
M  V30 25 1 28 12
M  V30 26 1 29 2
M  V30 27 1 29 12
M  V30 28 1 29 24
M  V30 29 2 30 10
M  V30 30 2 31 1
M  V30 31 1 31 16
M  V30 32 1 31 20
M  V30 33 1 32 8
M  V30 34 1 32 9
M  V30 35 1 33 15
M  V30 36 2 34 3
M  V30 37 1 34 20
M  V30 38 1 35 4
M  V30 39 1 35 6
M  V30 40 1 36 3
M  V30 41 1 37 4
M  V30 42 1 38 4
M  V30 43 1 39 5
M  V30 44 1 40 6
M  V30 45 1 41 6
M  V30 46 1 8 42 CFG=1
M  V30 47 1 43 9
M  V30 48 1 44 9
M  V30 49 1 12 45 CFG=1
M  V30 50 1 13 46 CFG=1
M  V30 51 1 17 47 CFG=1
M  V30 52 1 48 19
M  V30 53 1 49 19
M  V30 54 1 50 19
M  V30 55 1 24 51 CFG=3
M  V30 56 1 52 25
M  V30 57 1 53 25
M  V30 58 1 54 27
M  V30 59 1 55 27
M  V30 60 1 56 27
M  V30 61 1 57 28
M  V30 62 1 58 28
M  V30 63 1 59 30
M  V30 64 1 60 30
M  V30 65 1 61 32
M  V30 66 1 62 32
M  V30 67 1 63 34
M  V30 68 1 64 35
M  V30 END BOND
M  V30 END CTAB
M  END
>  <i_epik_Tot_Q>  (1) 
0

>  <i_epik_Tot_abs_Q>  (1) 
0

>  <i_i_glide_confnum>  (1) 
3

>  <i_i_glide_lignum>  (1) 
168

>  <i_i_glide_posenum>  (1) 
213

>  <i_i_glide_rotatable_bonds>  (1) 
4

>  <i_lp_mmshare_version>  (1) 
72125

>  <i_m_source_file_index>  (1) 
83

>  <i_f3d_flags>  (1) 
0

>  <num_sample>  (1) 
100

>  <b_lp_Chiralities_Consistent>  (1) 
1

>  <r_epik_Charging_Adjusted_Penalty>  (1) 
0.046558445642634526

>  <r_epik_Ionization_Penalty>  (1) 
0.046507495434493687

>  <r_epik_Ionization_Penalty_Charging>  (1) 
0

>  <r_epik_Ionization_Penalty_Neutral>  (1) 
0.046507495434493687

>  <r_epik_State_Penalty>  (1) 
0.046558445642634526

>  <r_glide_ring_energy>  (1) 
0

>  <r_i_docking_score>  (1) 
-4.8349772028168854

>  <r_i_glide_ecoul>  (1) 
-2.0703782802501491

>  <r_i_glide_eff_state_penalty>  (1) 
0.046558445642634526

>  <r_i_glide_einternal>  (1) 
4.1109814093886889

>  <r_i_glide_emodel>  (1) 
-37.40507255296572

>  <r_i_glide_emodel_strain>  (1) 
2.2046289529133816

>  <r_i_glide_energy>  (1) 
-32.729511874596895

>  <r_i_glide_erotb>  (1) 
0.1660487774470758

>  <r_i_glide_esite>  (1) 
0

>  <r_i_glide_evdw>  (1) 
-30.659133594346745

>  <r_i_glide_gscore>  (1) 
-4.8815356484595203

>  <r_i_glide_gscore_strain>  (1) 
0

>  <r_i_glide_hbond>  (1) 
-0.32683227386667574

>  <r_i_glide_ligand_efficiency>  (1) 
-0.13814220579476816

>  <r_i_glide_ligand_efficiency_ln>  (1) 
-1.0613848025557997

>  <r_i_glide_ligand_efficiency_sa>  (1) 
-0.45187231539040512

>  <r_i_glide_lipo>  (1) 
-1.5761474192210128

>  <r_i_glide_metal>  (1) 
-0

>  <r_i_glide_rewards>  (1) 
-1.3010913110640476

>  <r_lp_Energy>  (1) 
56.444668

>  <r_lp_tautomer_probability>  (1) 
0.99999999486000002

>  <s_epik_Chemistry_Notes>  (1) 
This compound has an imine and may undergo hydrolysis. This compound contains an acetal/aminal-like group ( X-CH(R)-Y where X, Y are N, S, or O) that may be acid/base labile, releasing an aldehyde.

>  <s_epik_cmdline>  (1) 
J2VwaWtfcHl0aG9uJywgJy1waHQnLCAnMS4wJywgJy1waCcsICc3LjQnLCAnLXRuJywgJzgnLCAnLW1hJywgJzUwMCcsICctaW1hZScsICc8aW5maWxlLm1hZT4nLCAnLW9tYWUnLCAnPG91dGZpbGUubWFlPic=

>  <s_epik_input>  (1) 
W0NIMl0xW05IXVtDSDJdQyhPRik9QyhGKWMoYzEyKVtjSF1bY0hdYyhjMltPSF0pW0NASF0oW0NIM10pW0NAQEhdKFtDSDJdW0NIMl1bQ0gyXTMpW0NIMl1bQ0BASF0oW0NAQEhdMzQpQyhGKShGKUMoPVtDSDJdKVtDQEBIXTVONE49QyhPNSlbQ0gzXQ==

>  <s_glide_docking_method>  (1) 
confgen

>  <s_i_glide_gridfile>  (1) 
gpcr_drd2_6luq_protein_autoprepared_prepared

>  <s_lp_Force_Field>  (1) 
S-OPLS

>  <s_lp_Variant>  (1) 
DiffSBDD_82_num_sample_100-2

>  <s_m_source_file>  (1) 
generated__ligand_DiffSBDD_2026-05-06_prepared.sdf

>  <GenAI_Model>  (1) 
DiffSBDD

>  <Protein>  (1) 
generic_title2

$$$$
DiffSBDD_82_num_sample_100
     RDKit          3D

  0  0  0  0  0  0  0  0  0  0999 V3000
M  V30 BEGIN CTAB
M  V30 COUNTS 64 68 0 0 1
M  V30 BEGIN ATOM
M  V30 1 C 10.334448 7.415108 -7.309925 0
M  V30 2 N 5.387485 -0.606684 -17.021632 0
M  V30 3 C 7.485139 4.714506 -10.447831 0
M  V30 4 C 10.902815 7.369733 -10.232630 0
M  V30 5 O 9.880101 6.386543 -12.691670 0
M  V30 6 C 11.097988 8.377330 -8.207488 0
M  V30 7 O 5.981790 0.494867 -18.916367 0
M  V30 8 C 7.542708 3.155737 -13.341241 0 CFG=2
M  V30 9 C 6.415752 0.863998 -12.840161 0
M  V30 10 C 7.700544 1.846370 -17.884957 0
M  V30 11 F 11.590993 8.599441 -5.628513 0
M  V30 12 C 6.721579 0.468849 -15.391688 0 CFG=1
M  V30 13 C 7.909698 1.469860 -15.352260 0 CFG=1
M  V30 14 F 9.034847 0.178340 -16.950737 0
M  V30 15 C 8.613130 1.424956 -16.736021 0
M  V30 16 F 8.874681 5.769311 -6.670981 0
M  V30 17 C 7.544494 4.693755 -13.008394 0 CFG=1
M  V30 18 C 9.716853 6.441551 -10.282554 0
M  V30 19 C 6.175762 5.366280 -13.238886 0
M  V30 20 C 9.063051 6.006202 -9.081330 0
M  V30 21 C 9.244890 5.986942 -11.550451 0
M  V30 22 O 10.558674 7.642693 -5.976808 0
M  V30 23 C 5.428742 -0.583154 -18.296598 0
M  V30 24 C 6.274833 1.314674 -17.838369 0 CFG=2
M  V30 25 C 7.572144 2.916834 -14.885892 0
M  V30 26 C 8.113716 5.132931 -11.630689 0
M  V30 27 C 4.910427 -1.665558 -19.193028 0
M  V30 28 C 5.805807 0.399600 -14.158141 0
M  V30 29 N 5.920997 0.569532 -16.619767 0
M  V30 30 C 8.120258 2.657664 -18.871122 0
M  V30 31 C 9.461763 6.431993 -7.676847 0
M  V30 32 C 6.348897 2.391173 -12.727183 0
M  V30 33 F 9.704200 2.191393 -16.692009 0
M  V30 34 C 7.964017 5.125118 -9.196937 0
M  V30 35 N 10.584357 8.569349 -9.529361 0
M  V30 36 H 6.620233 4.086014 -10.489298 0
M  V30 37 H 11.179562 7.687797 -11.235214 0
M  V30 38 H 11.794421 6.887870 -9.840437 0
M  V30 39 H 9.606934 5.907151 -13.457680 0
M  V30 40 H 11.038611 9.362591 -7.744822 0
M  V30 41 H 12.159992 8.124965 -8.212558 0
M  V30 42 H 8.467792 2.747297 -12.931083 0
M  V30 43 H 5.818875 0.435979 -12.033564 0
M  V30 44 H 7.425751 0.480964 -12.690525 0
M  V30 45 H 7.208875 -0.507928 -15.428264 0
M  V30 46 H 8.634555 1.079367 -14.636403 0
M  V30 47 H 8.178207 5.137474 -13.770512 0
M  V30 48 H 6.266614 6.450618 -13.170564 0
M  V30 49 H 5.439976 5.061237 -12.494579 0
M  V30 50 H 5.769060 5.137009 -14.223330 0
M  V30 51 H 5.602618 2.169654 -17.893370 0
M  V30 52 H 8.325422 3.581036 -15.307291 0
M  V30 53 H 6.635409 3.234883 -15.340418 0
M  V30 54 H 4.026328 -2.135617 -18.760812 0
M  V30 55 H 5.666374 -2.436751 -19.339282 0
M  V30 56 H 4.636168 -1.267623 -20.170479 0
M  V30 57 H 4.887966 0.963456 -14.326929 0
M  V30 58 H 5.477920 -0.630419 -14.053924 0
M  V30 59 H 9.131385 3.036382 -18.890888 0
M  V30 60 H 7.455664 2.949954 -19.670805 0
M  V30 61 H 6.234805 2.595993 -11.678860 0
M  V30 62 H 5.424253 2.757181 -13.168174 0
M  V30 63 H 7.455102 4.789798 -8.305796 0
M  V30 64 H 9.575332 8.665813 -9.485066 0
M  V30 END ATOM
M  V30 BEGIN BOND
M  V30 1 1 6 1
M  V30 2 1 13 12
M  V30 3 1 15 10
M  V30 4 1 15 13
M  V30 5 1 15 14
M  V30 6 1 17 8
M  V30 7 1 18 4
M  V30 8 1 19 17
M  V30 9 2 20 18
M  V30 10 1 21 5
M  V30 11 1 21 18
M  V30 12 1 22 1
M  V30 13 1 22 11
M  V30 14 2 23 2
M  V30 15 1 23 7
M  V30 16 1 24 7
M  V30 17 1 24 10
M  V30 18 1 25 8
M  V30 19 1 25 13
M  V30 20 1 26 3
M  V30 21 1 26 17
M  V30 22 2 26 21
M  V30 23 1 27 23
M  V30 24 1 28 9
M  V30 25 1 28 12
M  V30 26 1 29 2
M  V30 27 1 29 12
M  V30 28 1 29 24
M  V30 29 2 30 10
M  V30 30 2 31 1
M  V30 31 1 31 16
M  V30 32 1 31 20
M  V30 33 1 32 8
M  V30 34 1 32 9
M  V30 35 1 33 15
M  V30 36 2 34 3
M  V30 37 1 34 20
M  V30 38 1 35 4
M  V30 39 1 35 6
M  V30 40 1 36 3
M  V30 41 1 37 4
M  V30 42 1 38 4
M  V30 43 1 39 5
M  V30 44 1 40 6
M  V30 45 1 41 6
M  V30 46 1 8 42 CFG=1
M  V30 47 1 43 9
M  V30 48 1 44 9
M  V30 49 1 12 45 CFG=3
M  V30 50 1 13 46 CFG=1
M  V30 51 1 17 47 CFG=3
M  V30 52 1 48 19
M  V30 53 1 49 19
M  V30 54 1 50 19
M  V30 55 1 24 51 CFG=3
M  V30 56 1 52 25
M  V30 57 1 53 25
M  V30 58 1 54 27
M  V30 59 1 55 27
M  V30 60 1 56 27
M  V30 61 1 57 28
M  V30 62 1 58 28
M  V30 63 1 59 30
M  V30 64 1 60 30
M  V30 65 1 61 32
M  V30 66 1 62 32
M  V30 67 1 63 34
M  V30 68 1 64 35
M  V30 END BOND
M  V30 END CTAB
M  END
>  <i_epik_Tot_Q>  (1) 
0

>  <i_epik_Tot_abs_Q>  (1) 
0

>  <i_i_glide_confnum>  (1) 
3

>  <i_i_glide_lignum>  (1) 
167

>  <i_i_glide_posenum>  (1) 
63

>  <i_i_glide_rotatable_bonds>  (1) 
4

>  <i_lp_mmshare_version>  (1) 
72125

>  <i_m_source_file_index>  (1) 
83

>  <i_f3d_flags>  (1) 
0

>  <num_sample>  (1) 
100

>  <b_lp_Chiralities_Consistent>  (1) 
1

>  <r_epik_Charging_Adjusted_Penalty>  (1) 
0.046558445642634526

>  <r_epik_Ionization_Penalty>  (1) 
0.046507495434493687

>  <r_epik_Ionization_Penalty_Charging>  (1) 
0

>  <r_epik_Ionization_Penalty_Neutral>  (1) 
0.046507495434493687

>  <r_epik_State_Penalty>  (1) 
0.046558445642634526

>  <r_glide_ring_energy>  (1) 
0

>  <r_i_docking_score>  (1) 
-4.8155718920578856

>  <r_i_glide_ecoul>  (1) 
-0.76976907677617645

>  <r_i_glide_eff_state_penalty>  (1) 
0.046558445642634526

>  <r_i_glide_einternal>  (1) 
2.526541186172711

>  <r_i_glide_emodel>  (1) 
-42.12229555360291

>  <r_i_glide_emodel_strain>  (1) 
1.0641386778421094

>  <r_i_glide_energy>  (1) 
-36.558186165991273

>  <r_i_glide_erotb>  (1) 
0.1660487774470758

>  <r_i_glide_esite>  (1) 
-0.041783475398468328

>  <r_i_glide_evdw>  (1) 
-35.788417089215095

>  <r_i_glide_gscore>  (1) 
-4.8621303377005205

>  <r_i_glide_gscore_strain>  (1) 
0

>  <r_i_glide_hbond>  (1) 
0

>  <r_i_glide_ligand_efficiency>  (1) 
-0.13758776834451103

>  <r_i_glide_ligand_efficiency_ln>  (1) 
-1.0571249061665311

>  <r_i_glide_ligand_efficiency_sa>  (1) 
-0.45005871372576217

>  <r_i_glide_lipo>  (1) 
-1.492063211795716

>  <r_i_glide_metal>  (1) 
-0

>  <r_i_glide_rewards>  (1) 
-1.5894462119762314

>  <r_lp_Energy>  (1) 
60.372588

>  <r_lp_tautomer_probability>  (1) 
0.99999999486000002

>  <s_epik_Chemistry_Notes>  (1) 
This compound has an imine and may undergo hydrolysis. This compound contains an acetal/aminal-like group ( X-CH(R)-Y where X, Y are N, S, or O) that may be acid/base labile, releasing an aldehyde.

>  <s_epik_cmdline>  (1) 
J2VwaWtfcHl0aG9uJywgJy1waHQnLCAnMS4wJywgJy1waCcsICc3LjQnLCAnLXRuJywgJzgnLCAnLW1hJywgJzUwMCcsICctaW1hZScsICc8aW5maWxlLm1hZT4nLCAnLW9tYWUnLCAnPG91dGZpbGUubWFlPic=

>  <s_epik_input>  (1) 
W0NIMl0xW05IXVtDSDJdQyhPRik9QyhGKWMoYzEyKVtjSF1bY0hdYyhjMltPSF0pW0NASF0oW0NIM10pW0NAQEhdKFtDSDJdW0NIMl1bQ0gyXTMpW0NIMl1bQ0BASF0oW0NAQEhdMzQpQyhGKShGKUMoPVtDSDJdKVtDQEBIXTVONE49QyhPNSlbQ0gzXQ==

>  <s_glide_docking_method>  (1) 
confgen

>  <s_i_glide_gridfile>  (1) 
gpcr_drd2_6luq_protein_autoprepared_prepared

>  <s_lp_Force_Field>  (1) 
S-OPLS

>  <s_lp_Variant>  (1) 
DiffSBDD_82_num_sample_100-1

>  <s_m_source_file>  (1) 
generated__ligand_DiffSBDD_2026-05-06_prepared.sdf

>  <GenAI_Model>  (1) 
DiffSBDD

>  <Protein>  (1) 
generic_title2

$$$$
DiffSBDD_73_num_sample_100
     RDKit          3D

  0  0  0  0  0  0  0  0  0  0999 V3000
M  V30 BEGIN CTAB
M  V30 COUNTS 42 44 0 0 1
M  V30 BEGIN ATOM
M  V30 1 C 8.465072 5.235544 -11.521116 0 CFG=1
M  V30 2 C 6.783246 1.373975 -14.539107 0
M  V30 3 O 9.607327 4.988946 -12.114259 0 CHG=-1
M  V30 4 C 7.238797 -0.080691 -16.302319 0
M  V30 5 C 8.816188 7.682702 -11.824786 0
M  V30 6 C 7.414244 6.461905 -13.543972 0
M  V30 7 N 8.636036 6.568608 -10.860784 0 CFG=2 CHG=1
M  V30 8 C 7.129907 3.904535 -13.281406 0
M  V30 9 C 8.059635 0.857517 -16.959056 0
M  V30 10 C 7.595997 2.382725 -15.134624 0
M  V30 11 N 6.613830 0.169306 -15.131720 0
M  V30 12 C 7.624113 7.769283 -12.775830 0
M  V30 13 C 9.433551 5.583137 -8.654641 0
M  V30 14 C 6.155440 1.666960 -13.311163 0
M  V30 15 C 9.639555 6.629486 -9.762346 0
M  V30 16 C 8.722325 0.532844 -18.239565 0
M  V30 17 C 8.234727 2.115111 -16.359561 0
M  V30 18 C 6.323264 2.920616 -12.691208 0
M  V30 19 C 7.768565 3.634396 -14.508122 0
M  V30 20 C 7.318522 5.259511 -12.579703 0 CFG=1
M  V30 21 N 8.617218 -0.577420 -18.832378 0
M  V30 22 H 8.091074 4.565499 -10.746548 0
M  V30 23 H 7.077497 -1.061178 -16.726996 0
M  V30 24 H 9.748043 7.562698 -12.378935 0
M  V30 25 H 8.896173 8.622946 -11.279324 0
M  V30 26 H 8.243583 6.344535 -14.233943 0
M  V30 27 H 6.513317 6.528065 -14.154427 0
M  V30 28 H 7.816614 8.569324 -13.487872 0
M  V30 29 H 6.723013 8.028821 -12.218040 0
M  V30 30 H 10.115646 5.764621 -7.824117 0
M  V30 31 H 8.416481 5.619977 -8.261288 0
M  V30 32 H 9.628763 4.572042 -9.013150 0
M  V30 33 H 5.535534 0.917678 -12.840760 0
M  V30 34 H 10.641816 6.567413 -10.177627 0
M  V30 35 H 9.567905 7.615580 -9.301963 0
M  V30 36 H 9.337087 1.323334 -18.678233 0
M  V30 37 H 8.856922 2.864487 -16.827830 0
M  V30 38 H 5.834827 3.121776 -11.749261 0
M  V30 39 H 8.397181 4.380246 -14.967338 0
M  V30 40 H 6.396871 5.423842 -12.018110 0
M  V30 41 H 9.136929 -0.615921 -19.697493 0
M  V30 42 H 7.760047 6.798146 -10.387177 0
M  V30 END ATOM
M  V30 BEGIN BOND
M  V30 1 1 3 1
M  V30 2 1 7 1
M  V30 3 1 7 5
M  V30 4 1 9 4
M  V30 5 1 10 2
M  V30 6 1 11 2
M  V30 7 2 11 4
M  V30 8 1 12 5
M  V30 9 1 12 6
M  V30 10 2 14 2
M  V30 11 1 15 7
M  V30 12 1 15 13
M  V30 13 1 16 9
M  V30 14 2 17 9
M  V30 15 1 17 10
M  V30 16 2 18 8
M  V30 17 1 18 14
M  V30 18 1 19 8
M  V30 19 2 19 10
M  V30 20 1 20 1
M  V30 21 1 20 6
M  V30 22 1 20 8
M  V30 23 2 21 16
M  V30 24 1 1 22 CFG=1
M  V30 25 1 23 4
M  V30 26 1 24 5
M  V30 27 1 25 5
M  V30 28 1 26 6
M  V30 29 1 27 6
M  V30 30 1 28 12
M  V30 31 1 29 12
M  V30 32 1 30 13
M  V30 33 1 31 13
M  V30 34 1 32 13
M  V30 35 1 33 14
M  V30 36 1 34 15
M  V30 37 1 35 15
M  V30 38 1 36 16
M  V30 39 1 37 17
M  V30 40 1 38 18
M  V30 41 1 39 19
M  V30 42 1 20 40 CFG=1
M  V30 43 1 41 21
M  V30 44 1 7 42 CFG=1
M  V30 END BOND
M  V30 END CTAB
M  END
>  <i_epik_Tot_Q>  (1) 
0

>  <i_epik_Tot_abs_Q>  (1) 
2

>  <i_i_glide_confnum>  (1) 
4

>  <i_i_glide_lignum>  (1) 
147

>  <i_i_glide_posenum>  (1) 
314

>  <i_i_glide_rotatable_bonds>  (1) 
3

>  <i_lp_mmshare_version>  (1) 
72125

>  <i_m_source_file_index>  (1) 
74

>  <i_f3d_flags>  (1) 
0

>  <num_sample>  (1) 
100

>  <b_lp_Chiralities_Consistent>  (1) 
1

>  <r_epik_Charging_Adjusted_Penalty>  (1) 
0.16727262916870361

>  <r_epik_Ionization_Penalty>  (1) 
0.055388618387316971

>  <r_epik_Ionization_Penalty_Charging>  (1) 
0.05537307808352282

>  <r_epik_Ionization_Penalty_Neutral>  (1) 
1.5540303794148587e-05

>  <r_epik_State_Penalty>  (1) 
0.11189955108518078

>  <r_glide_ring_energy>  (1) 
0

>  <r_i_docking_score>  (1) 
-4.8049857512857734

>  <r_i_glide_ecoul>  (1) 
-2.4219309072201529

>  <r_i_glide_eff_state_penalty>  (1) 
0.11189955108518078

>  <r_i_glide_einternal>  (1) 
3.0890427981910769

>  <r_i_glide_emodel>  (1) 
-36.31459889471229

>  <r_i_glide_emodel_strain>  (1) 
0.0077209147697558933

>  <r_i_glide_energy>  (1) 
-27.800838945677114

>  <r_i_glide_erotb>  (1) 
0.22551580141899327

>  <r_i_glide_esite>  (1) 
-0.085614141652743475

>  <r_i_glide_evdw>  (1) 
-25.378908038456959

>  <r_i_glide_gscore>  (1) 
-4.9168853023709538

>  <r_i_glide_gscore_strain>  (1) 
0

>  <r_i_glide_hbond>  (1) 
-0.19275564361141939

>  <r_i_glide_ligand_efficiency>  (1) 
-0.22880884529932255

>  <r_i_glide_ligand_efficiency_ln>  (1) 
-1.1880230176174766

>  <r_i_glide_ligand_efficiency_sa>  (1) 
-0.63126625506614875

>  <r_i_glide_lipo>  (1) 
-1.1264241114294149

>  <r_i_glide_metal>  (1) 
-0

>  <r_i_glide_rewards>  (1) 
-2.1053721690904981

>  <r_lp_Energy>  (1) 
44.226918999999995

>  <s_epik_Chemistry_Notes>  (1) 
This compound has an imine and may undergo hydrolysis. This compound contains an acetal/aminal-like group ( X-CH(R)-Y where X, Y are N, S, or O) that may be acid/base labile, releasing an aldehyde.

>  <s_epik_cmdline>  (1) 
J2VwaWtfcHl0aG9uJywgJy1waHQnLCAnMS4wJywgJy1waCcsICc3LjQnLCAnLXRuJywgJzgnLCAnLW1hJywgJzUwMCcsICctaW1hZScsICc8aW5maWxlLm1hZT4nLCAnLW9tYWUnLCAnPG91dGZpbGUubWFlPic=

>  <s_epik_input>  (1) 
W09IXVtDQEhdMU4oW0NIMl1bQ0gzXSlbQ0gyXVtDSDJdW0NIMl1bQ0BIXTFjKFtjSF1bY0hdMilbY0hdYyhjMjMpW2NIXWMoW2NIXW4zKS9bQ0hdPU4vW0hd

>  <s_glide_docking_method>  (1) 
confgen

>  <s_i_glide_gridfile>  (1) 
gpcr_drd2_6luq_protein_autoprepared_prepared

>  <s_lp_Force_Field>  (1) 
S-OPLS

>  <s_lp_Variant>  (1) 
DiffSBDD_73_num_sample_100-2

>  <s_m_source_file>  (1) 
generated__ligand_DiffSBDD_2026-05-06_prepared.sdf

>  <GenAI_Model>  (1) 
DiffSBDD

>  <Protein>  (1) 
generic_title2

$$$$
DiffSBDD_83_num_sample_100
     RDKit          3D

  0  0  0  0  0  0  0  0  0  0999 V3000
M  V30 BEGIN CTAB
M  V30 COUNTS 48 52 0 0 1
M  V30 BEGIN ATOM
M  V30 1 C 9.408889 5.382282 -8.291568 0
M  V30 2 C 5.159545 8.224584 -16.302191 0
M  V30 3 C 6.422454 6.155918 -16.548272 0 CFG=1
M  V30 4 C 6.122021 4.642735 -13.067027 0
M  V30 5 C 5.836425 5.970421 -15.165109 0 CFG=2
M  V30 6 N 7.478469 4.692582 -10.756676 0
M  V30 7 C 5.567966 6.309711 -17.783121 0
M  V30 8 C 10.204762 7.602554 -7.695774 0
M  V30 9 C 6.185177 7.343825 -15.657000 0 CFG=2
M  V30 10 C 6.613470 5.355273 -14.069358 0
M  V30 11 C 10.606365 8.603679 -6.637301 0
M  V30 12 C 8.972873 4.724676 -10.688123 0 CFG=1
M  V30 13 C 9.834821 7.030586 -10.040109 0
M  V30 14 C 7.964405 5.457963 -13.881208 0
M  V30 15 C 9.798916 6.312068 -7.316258 0
M  V30 16 C 4.530019 7.386871 -17.433440 0
M  V30 17 C 9.605894 4.793873 -12.125990 0
M  V30 18 C 10.224412 7.962627 -9.061951 0
M  V30 19 C 8.300888 4.803330 -12.787660 0
M  V30 20 C 11.927349 9.295469 -6.949087 0
M  V30 21 O 12.234934 10.169251 -5.891041 0
M  V30 22 C 7.180722 4.090871 -12.043064 0 CFG=2
M  V30 23 C 9.424123 5.735901 -9.653699 0
M  V30 24 H 9.086155 4.396406 -7.994374 0
M  V30 25 H 4.424659 8.569092 -15.574646 0
M  V30 26 H 5.690199 9.091392 -16.691667 0
M  V30 27 H 7.443901 5.816364 -16.708633 0
M  V30 28 H 5.073031 4.415186 -12.950100 0
M  V30 29 H 4.771972 5.769331 -15.082942 0
M  V30 30 H 7.141390 5.647099 -10.691591 0
M  V30 31 H 5.107315 5.364561 -18.065275 0
M  V30 32 H 6.200258 6.641300 -18.607480 0
M  V30 33 H 7.034583 7.845379 -15.196931 0
M  V30 34 H 10.665376 8.103716 -5.669368 0
M  V30 35 H 9.817520 9.347175 -6.555501 0
M  V30 36 H 9.289179 3.767910 -10.291754 0
M  V30 37 H 9.836787 7.314361 -11.080543 0
M  V30 38 H 8.635003 6.044569 -14.488136 0
M  V30 39 H 9.777815 6.037078 -6.272781 0
M  V30 40 H 3.621503 6.906372 -17.066581 0
M  V30 41 H 4.251788 7.986841 -18.299371 0
M  V30 42 H 10.208237 5.666386 -12.370311 0
M  V30 43 H 10.156405 3.882149 -12.357602 0
M  V30 44 H 10.526857 8.955164 -9.358700 0
M  V30 45 H 11.834837 9.862816 -7.870651 0
M  V30 46 H 12.730989 8.574162 -7.091677 0
M  V30 47 H 12.330198 9.661618 -5.099378 0
M  V30 48 H 7.312680 3.011609 -12.092835 0
M  V30 END ATOM
M  V30 BEGIN BOND
M  V30 1 1 5 3
M  V30 2 1 7 3
M  V30 3 1 9 2
M  V30 4 1 9 3
M  V30 5 1 9 5
M  V30 6 2 10 4
M  V30 7 1 10 5
M  V30 8 1 11 8
M  V30 9 1 12 6
M  V30 10 1 14 10
M  V30 11 2 15 1
M  V30 12 1 15 8
M  V30 13 1 16 2
M  V30 14 1 16 7
M  V30 15 1 17 12
M  V30 16 2 18 8
M  V30 17 1 18 13
M  V30 18 2 19 14
M  V30 19 1 19 17
M  V30 20 1 20 11
M  V30 21 1 21 20
M  V30 22 1 22 4
M  V30 23 1 22 6
M  V30 24 1 22 19
M  V30 25 1 23 1
M  V30 26 1 23 12
M  V30 27 2 23 13
M  V30 28 1 24 1
M  V30 29 1 25 2
M  V30 30 1 26 2
M  V30 31 1 3 27 CFG=3
M  V30 32 1 28 4
M  V30 33 1 5 29 CFG=3
M  V30 34 1 30 6
M  V30 35 1 31 7
M  V30 36 1 32 7
M  V30 37 1 9 33 CFG=1
M  V30 38 1 34 11
M  V30 39 1 35 11
M  V30 40 1 12 36 CFG=1
M  V30 41 1 37 13
M  V30 42 1 38 14
M  V30 43 1 39 15
M  V30 44 1 40 16
M  V30 45 1 41 16
M  V30 46 1 42 17
M  V30 47 1 43 17
M  V30 48 1 44 18
M  V30 49 1 45 20
M  V30 50 1 46 20
M  V30 51 1 47 21
M  V30 52 1 22 48 CFG=1
M  V30 END BOND
M  V30 END CTAB
M  END
>  <i_epik_Tot_Q>  (1) 
0

>  <i_epik_Tot_abs_Q>  (1) 
0

>  <i_i_glide_confnum>  (1) 
187

>  <i_i_glide_lignum>  (1) 
171

>  <i_i_glide_posenum>  (1) 
319

>  <i_i_glide_rotatable_bonds>  (1) 
5

>  <i_lp_mmshare_version>  (1) 
72125

>  <i_m_source_file_index>  (1) 
84

>  <i_f3d_flags>  (1) 
0

>  <num_sample>  (1) 
100

>  <b_lp_Chiralities_Consistent>  (1) 
1

>  <r_epik_Charging_Adjusted_Penalty>  (1) 
0.79484472859609101

>  <r_epik_Ionization_Penalty>  (1) 
0.79484480768617471

>  <r_epik_Ionization_Penalty_Charging>  (1) 
0

>  <r_epik_Ionization_Penalty_Neutral>  (1) 
0.79484480768617471

>  <r_epik_State_Penalty>  (1) 
0.79484472859609101

>  <r_glide_ring_energy>  (1) 
0

>  <r_i_docking_score>  (1) 
-4.8047931566750544

>  <r_i_glide_ecoul>  (1) 
0.37179945871345921

>  <r_i_glide_eff_state_penalty>  (1) 
0.79484472859609101

>  <r_i_glide_einternal>  (1) 
2.2404417214685894

>  <r_i_glide_emodel>  (1) 
-41.609107142525517

>  <r_i_glide_emodel_strain>  (1) 
1.27668989348183

>  <r_i_glide_energy>  (1) 
-33.475671564845491

>  <r_i_glide_erotb>  (1) 
0.7823539513187745

>  <r_i_glide_esite>  (1) 
0

>  <r_i_glide_evdw>  (1) 
-33.847471023558953

>  <r_i_glide_gscore>  (1) 
-5.5996378852711457

>  <r_i_glide_gscore_strain>  (1) 
0

>  <r_i_glide_hbond>  (1) 
0

>  <r_i_glide_ligand_efficiency>  (1) 
-0.20890405029021974

>  <r_i_glide_ligand_efficiency_ln>  (1) 
-1.1618425527396194

>  <r_i_glide_ligand_efficiency_sa>  (1) 
-0.59409533057760688

>  <r_i_glide_lipo>  (1) 
-2.53247570421899

>  <r_i_glide_metal>  (1) 
-0

>  <r_i_glide_rewards>  (1) 
-2.2129125000000012

>  <r_lp_Energy>  (1) 
31.713768999999999

>  <s_epik_cmdline>  (1) 
J2VwaWtfcHl0aG9uJywgJy1waHQnLCAnMS4wJywgJy1waCcsICc3LjQnLCAnLXRuJywgJzgnLCAnLW1hJywgJzUwMCcsICctaW1hZScsICc8aW5maWxlLm1hZT4nLCAnLW9tYWUnLCAnPG91dGZpbGUubWFlPic=

>  <s_epik_input>  (1) 
W09IXVtDSDJdW0NIMl1jMVtjSF1bY0hdYyhbY0hdW2NIXTEpW0NASF0oW0NIMl0yKVtOSF1bQ0BIXShDMjMpW0NIXT1DKFtDSF09MylbQ0BIXTRbQ0BASF0oW0NAQEhdNDUpW0NIMl1bQ0gyXVtDSDJdNQ==

>  <s_glide_docking_method>  (1) 
confgen

>  <s_i_glide_gridfile>  (1) 
gpcr_drd2_6luq_protein_autoprepared_prepared

>  <s_lp_Force_Field>  (1) 
S-OPLS

>  <s_lp_Variant>  (1) 
DiffSBDD_83_num_sample_100-3

>  <s_m_source_file>  (1) 
generated__ligand_DiffSBDD_2026-05-06_prepared.sdf

>  <GenAI_Model>  (1) 
DiffSBDD

>  <Protein>  (1) 
generic_title2

$$$$
DiffSBDD_59_num_sample_100
     RDKit          3D

  0  0  0  0  0  0  0  0  0  0999 V3000
M  V30 BEGIN CTAB
M  V30 COUNTS 74 77 0 0 1
M  V30 BEGIN ATOM
M  V30 1 C 5.435491 4.394782 -13.260737 0
M  V30 2 N 7.299938 0.366161 -18.169151 0 CFG=2 CHG=1
M  V30 3 C 6.097427 0.917177 -18.844511 0
M  V30 4 C 7.022412 -0.562106 -17.016527 0 CFG=1
M  V30 5 C 7.935755 6.410646 -12.893046 0
M  V30 6 C 6.917548 4.026004 -13.070946 0 CFG=2
M  V30 7 C 12.716545 9.002740 -4.285063 0
M  V30 8 C 11.850512 8.816641 -7.283010 0
M  V30 9 C 8.473765 4.742417 -11.187912 0
M  V30 10 C 11.136638 8.136441 -6.275390 0
M  V30 11 O 7.826827 1.114997 -13.623913 0
M  V30 12 O 11.422963 9.608582 -4.364777 0
M  V30 13 C 10.050104 7.339653 -6.665396 0
M  V30 14 C 9.270310 5.675037 -10.516811 0
M  V30 15 C 6.307667 1.001245 -20.363515 0
M  V30 16 C 7.793363 5.090446 -12.371392 0
M  V30 17 C 10.511576 7.962800 -8.967050 0
M  V30 18 C 8.750591 7.347048 -12.210955 0
M  V30 19 N 11.543649 8.750178 -8.598736 0
M  V30 20 C 8.362979 1.399540 -18.005313 0
M  V30 21 N 6.634899 1.464979 -15.514548 0
M  V30 22 C 7.224233 6.832754 -14.168141 0
M  V30 23 C 6.283456 -1.838177 -17.482960 0
M  V30 24 O 8.320022 -1.030338 -16.691593 0
M  V30 25 N 10.213006 7.936657 -10.348102 0
M  V30 26 C 7.351559 1.882832 -14.458639 0
M  V30 27 C 9.407032 6.986931 -11.013767 0
M  V30 28 C 7.217075 2.115266 -20.860499 0
M  V30 29 C 9.728303 7.247851 -8.024811 0
M  V30 30 C 7.565993 3.399003 -14.329515 0
M  V30 31 C 9.811525 0.291105 -19.816601 0
M  V30 32 C 11.521890 8.251986 -4.829699 0 CFG=2
M  V30 33 C 9.170373 1.590757 -19.299790 0 CFG=1
M  V30 34 C 6.333885 0.053797 -15.765276 0
M  V30 35 C 8.460665 2.368258 -20.402805 0
M  V30 36 H 5.034221 4.843445 -12.351913 0
M  V30 37 H 5.268605 5.083317 -14.084232 0
M  V30 38 H 4.846034 3.506968 -13.489936 0
M  V30 39 H 5.227117 0.285907 -18.673994 0
M  V30 40 H 5.820137 1.890623 -18.435309 0
M  V30 41 H 6.870316 3.225667 -12.331129 0
M  V30 42 H 13.041623 8.802305 -3.265841 0
M  V30 43 H 13.460558 9.423572 -4.956338 0
M  V30 44 H 12.698259 9.428912 -7.027431 0
M  V30 45 H 8.386109 3.757024 -10.791790 0
M  V30 46 H 9.467599 6.806990 -5.928907 0
M  V30 47 H 9.790577 5.372310 -9.624010 0
M  V30 48 H 6.655165 0.047080 -20.761864 0
M  V30 49 H 5.334555 1.171109 -20.826832 0
M  V30 50 H 8.860381 8.346732 -12.601286 0
M  V30 51 H 7.928463 2.354803 -17.703852 0
M  V30 52 H 9.067102 1.162865 -17.208176 0
M  V30 53 H 6.269959 2.148898 -16.160300 0
M  V30 54 H 7.673559 7.741308 -14.564603 0
M  V30 55 H 7.287801 6.088847 -14.957840 0
M  V30 56 H 6.180613 7.071203 -13.960577 0
M  V30 57 H 5.248514 -1.651708 -17.773609 0
M  V30 58 H 6.780701 -2.300789 -18.336807 0
M  V30 59 H 6.234180 -2.585995 -16.692188 0
M  V30 60 H 8.232130 -1.739034 -16.058755 0
M  V30 61 H 10.602305 8.677657 -10.907971 0
M  V30 62 H 6.816987 2.734680 -21.651859 0
M  V30 63 H 8.877471 6.659880 -8.332409 0
M  V30 64 H 8.635176 3.547536 -14.267691 0
M  V30 65 H 7.247776 3.906164 -15.239951 0
M  V30 66 H 10.522587 0.501761 -20.616705 0
M  V30 67 H 10.358957 -0.224835 -19.025789 0
M  V30 68 H 9.071728 -0.403742 -20.212284 0
M  V30 69 H 11.041785 7.497265 -4.208455 0
M  V30 70 H 9.998103 2.243685 -19.016698 0
M  V30 71 H 5.255437 0.019818 -15.917636 0
M  V30 72 H 6.502750 -0.574487 -14.889235 0
M  V30 73 H 9.019453 3.185266 -20.838453 0
M  V30 74 H 7.705888 -0.265739 -18.843782 0
M  V30 END ATOM
M  V30 BEGIN BOND
M  V30 1 1 3 2
M  V30 2 1 4 2
M  V30 3 1 6 1
M  V30 4 2 10 8
M  V30 5 1 12 7
M  V30 6 1 13 10
M  V30 7 2 14 9
M  V30 8 1 15 3
M  V30 9 2 16 5
M  V30 10 1 16 6
M  V30 11 1 16 9
M  V30 12 1 18 5
M  V30 13 1 19 8
M  V30 14 2 19 17
M  V30 15 1 20 2
M  V30 16 1 22 5
M  V30 17 1 23 4
M  V30 18 1 4 24 CFG=1
M  V30 19 1 25 17
M  V30 20 2 26 11
M  V30 21 1 26 21
M  V30 22 1 27 14
M  V30 23 2 27 18
M  V30 24 1 27 25
M  V30 25 1 28 15
M  V30 26 2 29 13
M  V30 27 1 29 17
M  V30 28 1 30 6
M  V30 29 1 30 26
M  V30 30 1 32 7
M  V30 31 1 32 10
M  V30 32 1 32 12
M  V30 33 1 33 20
M  V30 34 1 33 31
M  V30 35 1 34 4
M  V30 36 1 34 21
M  V30 37 2 35 28
M  V30 38 1 35 33
M  V30 39 1 36 1
M  V30 40 1 37 1
M  V30 41 1 38 1
M  V30 42 1 39 3
M  V30 43 1 40 3
M  V30 44 1 6 41 CFG=1
M  V30 45 1 42 7
M  V30 46 1 43 7
M  V30 47 1 44 8
M  V30 48 1 45 9
M  V30 49 1 46 13
M  V30 50 1 47 14
M  V30 51 1 48 15
M  V30 52 1 49 15
M  V30 53 1 50 18
M  V30 54 1 51 20
M  V30 55 1 52 20
M  V30 56 1 53 21
M  V30 57 1 54 22
M  V30 58 1 55 22
M  V30 59 1 56 22
M  V30 60 1 57 23
M  V30 61 1 58 23
M  V30 62 1 59 23
M  V30 63 1 60 24
M  V30 64 1 61 25
M  V30 65 1 62 28
M  V30 66 1 63 29
M  V30 67 1 64 30
M  V30 68 1 65 30
M  V30 69 1 66 31
M  V30 70 1 67 31
M  V30 71 1 68 31
M  V30 72 1 32 69 CFG=1
M  V30 73 1 33 70 CFG=1
M  V30 74 1 71 34
M  V30 75 1 72 34
M  V30 76 1 73 35
M  V30 77 1 2 74 CFG=3
M  V30 END BOND
M  V30 END CTAB
M  END
>  <i_epik_Tot_Q>  (1) 
1

>  <i_epik_Tot_abs_Q>  (1) 
1

>  <i_i_glide_confnum>  (1) 
788

>  <i_i_glide_lignum>  (1) 
118

>  <i_i_glide_posenum>  (1) 
159

>  <i_i_glide_rotatable_bonds>  (1) 
11

>  <i_lp_mmshare_version>  (1) 
72125

>  <i_m_source_file_index>  (1) 
60

>  <i_f3d_flags>  (1) 
0

>  <num_sample>  (1) 
100

>  <b_lp_Chiralities_Consistent>  (1) 
1

>  <r_epik_Charging_Adjusted_Penalty>  (1) 
1.3886415501160498

>  <r_epik_Ionization_Penalty>  (1) 
0.71269190361940904

>  <r_epik_Ionization_Penalty_Charging>  (1) 
0.69432077505802503

>  <r_epik_Ionization_Penalty_Neutral>  (1) 
0.018371128561383968

>  <r_epik_State_Penalty>  (1) 
0.69432077505802492

>  <r_glide_ring_energy>  (1) 
0

>  <r_i_docking_score>  (1) 
-4.7999652345738113

>  <r_i_glide_ecoul>  (1) 
-4.84215944492618

>  <r_i_glide_eff_state_penalty>  (1) 
0.69432077505802492

>  <r_i_glide_einternal>  (1) 
16.047097719930463

>  <r_i_glide_emodel>  (1) 
-53.042591896301516

>  <r_i_glide_emodel_strain>  (1) 
0.49812946435756089

>  <r_i_glide_energy>  (1) 
-49.07418323110339

>  <r_i_glide_erotb>  (1) 
0.88120926584797454

>  <r_i_glide_esite>  (1) 
-0.065365244625385996

>  <r_i_glide_evdw>  (1) 
-44.232023786177209

>  <r_i_glide_gscore>  (1) 
-5.4942860096318364

>  <r_i_glide_gscore_strain>  (1) 
0

>  <r_i_glide_hbond>  (1) 
-0.32000000000000001

>  <r_i_glide_ligand_efficiency>  (1) 
-0.13714186384496604

>  <r_i_glide_ligand_efficiency_ln>  (1) 
-1.0536988984776761

>  <r_i_glide_ligand_efficiency_sa>  (1) 
-0.44860013053973907

>  <r_i_glide_lipo>  (1) 
-2.0936021552089668

>  <r_i_glide_metal>  (1) 
-0

>  <r_i_glide_rewards>  (1) 
-0.95860276959767088

>  <r_lp_Energy>  (1) 
32.050570999999998

>  <r_lp_tautomer_probability>  (1) 
0.99999977220005165

>  <s_epik_cmdline>  (1) 
J2VwaWtfcHl0aG9uJywgJy1waHQnLCAnMS4wJywgJy1waCcsICc3LjQnLCAnLXRuJywgJzgnLCAnLW1hJywgJzUwMCcsICctaW1hZScsICc8aW5maWxlLm1hZT4nLCAnLW9tYWUnLCAnPG91dGZpbGUubWFlPic=

>  <s_epik_input>  (1) 
W0NIMl0xW0NAQEhdKFtDSDNdKVtDSF09W0NIXVtDSDJdW0NIMl1OMVtDQEBdKFtDSDNdKShbT0hdKVtDSDJdW05IXUMoPU8pW0NIMl1bQ0BIXShbQ0gzXSljKGMyW0NIM10pW2NIXVtjSF1jKFtjSF0yKVtOSF1jKFtjSF1bY0hdMyluW2NIXWMzW0NASF00W0NIMl1PNA==

>  <s_glide_docking_method>  (1) 
confgen

>  <s_i_glide_gridfile>  (1) 
gpcr_drd2_6luq_protein_autoprepared_prepared

>  <s_lp_Force_Field>  (1) 
S-OPLS

>  <s_lp_Variant>  (1) 
DiffSBDD_59_num_sample_100-2

>  <s_m_source_file>  (1) 
generated__ligand_DiffSBDD_2026-05-06_prepared.sdf

>  <GenAI_Model>  (1) 
DiffSBDD

>  <Protein>  (1) 
generic_title2

$$$$
DiffSBDD_10_num_sample_100
     RDKit          3D

  0  0  0  0  0  0  0  0  0  0999 V3000
M  V30 BEGIN CTAB
M  V30 COUNTS 72 75 0 0 1
M  V30 BEGIN ATOM
M  V30 1 Cl 8.493007 8.618967 -22.726807 0
M  V30 2 C 9.316653 5.444080 -10.741495 0 CFG=1
M  V30 3 O 9.176545 4.893711 -15.087437 0
M  V30 4 C 8.810574 4.674685 -17.443111 0 CFG=1
M  V30 5 C 9.426899 5.056310 -9.256035 0
M  V30 6 C 9.840244 8.793268 -9.219713 0
M  V30 7 C 9.692470 6.930867 -7.470339 0
M  V30 8 C 8.253595 6.580589 -13.452004 0
M  V30 9 C 8.299109 5.593710 -18.578549 0
M  V30 10 C 10.323545 7.856743 -10.350618 0
M  V30 11 C 6.251922 7.019037 -19.967724 0
M  V30 12 C 8.927299 5.217487 -13.721197 0 CFG=1
M  V30 13 C 9.502701 5.926433 -8.283554 0
M  V30 14 N 7.299668 3.327477 -13.390853 0 CHG=1
M  V30 15 C 7.634902 2.433548 -18.272044 0 CFG=2
M  V30 16 N 7.390982 1.190734 -17.526226 0
M  V30 17 O 9.947572 2.587521 -17.554939 0
M  V30 18 C 6.300917 1.005502 -13.594724 0
M  V30 19 C 5.040694 7.723825 -20.008722 0
M  V30 20 C 6.959264 2.062372 -12.701901 0
M  V30 21 C 7.812289 2.110388 -19.763056 0
M  V30 22 N 9.838065 8.247061 -7.862318 0
M  V30 23 C 8.158329 4.616824 -11.371292 0
M  V30 24 C 9.213459 6.985679 -11.032959 0 CFG=1
M  V30 25 C 8.234029 4.903017 -16.040153 0
M  V30 26 S 6.493303 5.706383 -18.813280 0
M  V30 27 C 6.635694 1.427337 -16.309358 0
M  V30 28 C 9.156773 7.401881 -12.509923 0
M  V30 29 C 5.987926 9.036644 -21.795749 0
M  V30 30 C 7.169600 8.271376 -21.679785 0
M  V30 31 F 3.761317 9.468758 -21.024591 0
M  V30 32 C 8.882728 3.173491 -17.752103 0
M  V30 33 C 8.444304 4.076598 -12.802831 0 CFG=2
M  V30 34 C 4.908300 8.754871 -20.943657 0
M  V30 35 S 7.380006 0.492826 -14.959022 0
M  V30 36 O 7.031485 5.068164 -15.840698 0
M  V30 37 N 7.306425 7.271034 -20.773914 0
M  V30 38 H 10.234708 5.084196 -11.194600 0
M  V30 39 H 9.860798 4.949983 -17.338215 0
M  V30 40 H 9.440791 4.014694 -9.039755 0
M  V30 41 H 8.863483 9.213063 -9.454549 0
M  V30 42 H 10.539562 9.627640 -9.198560 0
M  V30 43 H 9.767446 6.798098 -6.401027 0
M  V30 44 H 7.239680 6.488063 -13.068610 0
M  V30 45 H 8.127715 7.127976 -14.381982 0
M  V30 46 H 8.674878 6.599684 -18.391895 0
M  V30 47 H 8.748019 5.282427 -19.522279 0
M  V30 48 H 10.774388 8.518442 -11.085416 0
M  V30 49 H 11.169162 7.251995 -10.025057 0
M  V30 50 H 9.960539 5.351617 -13.404581 0
M  V30 51 H 6.487367 3.924995 -13.448899 0
M  V30 52 H 6.758027 3.074345 -18.177694 0
M  V30 53 H 6.947556 0.472372 -18.081991 0
M  V30 54 H 5.333341 1.340027 -13.961061 0
M  V30 55 H 6.109193 0.111112 -12.997724 0
M  V30 56 H 4.233697 7.480071 -19.335550 0
M  V30 57 H 6.271882 2.303793 -11.891800 0
M  V30 58 H 7.866822 1.616908 -12.291926 0
M  V30 59 H 7.987049 3.013803 -20.347128 0
M  V30 60 H 6.918642 1.633531 -20.166010 0
M  V30 61 H 8.653699 1.435874 -19.933062 0
M  V30 62 H 9.746618 8.939468 -7.134267 0
M  V30 63 H 7.962180 3.769653 -10.730112 0
M  V30 64 H 7.228913 5.185954 -11.326612 0
M  V30 65 H 8.237387 7.281505 -10.691681 0
M  V30 66 H 6.634600 2.476232 -16.022455 0
M  V30 67 H 5.604194 1.111328 -16.460633 0
M  V30 68 H 10.187489 7.386787 -12.862594 0
M  V30 69 H 8.839442 8.445983 -12.556100 0
M  V30 70 H 5.917513 9.826301 -22.528795 0
M  V30 71 H 9.272545 3.367125 -12.735655 0
M  V30 72 H 7.570269 3.082031 -14.332790 0
M  V30 END ATOM
M  V30 BEGIN BOND
M  V30 1 1 5 2
M  V30 2 1 9 4
M  V30 3 1 10 6
M  V30 4 1 12 3
M  V30 5 1 12 8
M  V30 6 2 13 5
M  V30 7 2 13 7
M  V30 8 1 16 15
M  V30 9 2 19 11
M  V30 10 1 20 14
M  V30 11 1 20 18
M  V30 12 1 21 15
M  V30 13 1 22 6
M  V30 14 1 22 7
M  V30 15 1 23 2
M  V30 16 1 24 2
M  V30 17 1 24 10
M  V30 18 1 25 3
M  V30 19 1 25 4
M  V30 20 1 26 9
M  V30 21 1 26 11
M  V30 22 1 27 16
M  V30 23 1 28 8
M  V30 24 1 28 24
M  V30 25 1 30 1
M  V30 26 1 30 29
M  V30 27 1 32 4
M  V30 28 1 32 15
M  V30 29 2 32 17
M  V30 30 1 33 12
M  V30 31 1 33 14
M  V30 32 1 33 23
M  V30 33 1 34 19
M  V30 34 2 34 29
M  V30 35 1 34 31
M  V30 36 1 35 18
M  V30 37 1 35 27
M  V30 38 2 36 25
M  V30 39 1 37 11
M  V30 40 2 37 30
M  V30 41 1 2 38 CFG=3
M  V30 42 1 4 39 CFG=1
M  V30 43 1 40 5
M  V30 44 1 41 6
M  V30 45 1 42 6
M  V30 46 1 43 7
M  V30 47 1 44 8
M  V30 48 1 45 8
M  V30 49 1 46 9
M  V30 50 1 47 9
M  V30 51 1 48 10
M  V30 52 1 49 10
M  V30 53 1 12 50 CFG=1
M  V30 54 1 51 14
M  V30 55 1 15 52 CFG=3
M  V30 56 1 53 16
M  V30 57 1 54 18
M  V30 58 1 55 18
M  V30 59 1 56 19
M  V30 60 1 57 20
M  V30 61 1 58 20
M  V30 62 1 59 21
M  V30 63 1 60 21
M  V30 64 1 61 21
M  V30 65 1 62 22
M  V30 66 1 63 23
M  V30 67 1 64 23
M  V30 68 1 24 65 CFG=1
M  V30 69 1 66 27
M  V30 70 1 67 27
M  V30 71 1 68 28
M  V30 72 1 69 28
M  V30 73 1 70 29
M  V30 74 1 33 71 CFG=1
M  V30 75 1 72 14
M  V30 END BOND
M  V30 END CTAB
M  END
>  <i_epik_Tot_Q>  (1) 
1

>  <i_epik_Tot_abs_Q>  (1) 
1

>  <i_i_glide_confnum>  (1) 
16

>  <i_i_glide_lignum>  (1) 
16

>  <i_i_glide_posenum>  (1) 
311

>  <i_i_glide_rotatable_bonds>  (1) 
3

>  <i_lp_mmshare_version>  (1) 
72125

>  <i_m_source_file_index>  (1) 
11

>  <i_f3d_flags>  (1) 
0

>  <num_sample>  (1) 
100

>  <b_lp_Chiralities_Consistent>  (1) 
1

>  <r_epik_Charging_Adjusted_Penalty>  (1) 
0.12758977024119775

>  <r_epik_Ionization_Penalty>  (1) 
0.067546712429239514

>  <r_epik_Ionization_Penalty_Charging>  (1) 
0.063794885120598888

>  <r_epik_Ionization_Penalty_Neutral>  (1) 
0.0037518273086406219

>  <r_epik_State_Penalty>  (1) 
0.06379488512059886

>  <r_glide_ring_energy>  (1) 
0

>  <r_i_docking_score>  (1) 
-4.7979536345742657

>  <r_i_glide_ecoul>  (1) 
-0.74703627291096142

>  <r_i_glide_eff_state_penalty>  (1) 
0.06379488512059886

>  <r_i_glide_einternal>  (1) 
5.6983126502154233

>  <r_i_glide_emodel>  (1) 
-31.340098547585171

>  <r_i_glide_emodel_strain>  (1) 
1.7219994791014273

>  <r_i_glide_energy>  (1) 
-35.198582853995177

>  <r_i_glide_erotb>  (1) 
0.10236479025810979

>  <r_i_glide_esite>  (1) 
-0.062256100346259613

>  <r_i_glide_evdw>  (1) 
-34.451546581084216

>  <r_i_glide_gscore>  (1) 
-4.8617485196948644

>  <r_i_glide_gscore_strain>  (1) 
0

>  <r_i_glide_hbond>  (1) 
0

>  <r_i_glide_ligand_efficiency>  (1) 
-0.12967442255606124

>  <r_i_glide_ligand_efficiency_ln>  (1) 
-1.0405636633471929

>  <r_i_glide_ligand_efficiency_sa>  (1) 
-0.43210394444087818

>  <r_i_glide_lipo>  (1) 
-1.8748357790981016

>  <r_i_glide_metal>  (1) 
-0

>  <r_i_glide_rewards>  (1) 
-1.1923886605177583

>  <r_lp_Energy>  (1) 
41.039594999999998

>  <r_lp_tautomer_probability>  (1) 
0.99999998000000012

>  <s_epik_Chemistry_Notes>  (1) 
This compound has an ester and may undergo hydrolysis at high or low pH. This compound contains an acetal/aminal-like group ( X-CH(R)-Y where X, Y are N, S, or O) that may be acid/base labile, releasing an aldehyde.

>  <s_epik_cmdline>  (1) 
J2VwaWtfcHl0aG9uJywgJy1waHQnLCAnMS4wJywgJy1waCcsICc3LjQnLCAnLXRuJywgJzgnLCAnLW1hJywgJzUwMCcsICctaW1hZScsICc8aW5maWxlLm1hZT4nLCAnLW9tYWUnLCAnPG91dGZpbGUubWFlPic=

>  <s_epik_input>  (1) 
Q2xjKG4xKVtjSF1jKEYpW2NIXWMxU1tDSDJdW0NAQEhdKEMoTzIpPU8pQyg9TylbQ0BASF0oW0NIM10pW05IXVtDSDJdU1tDSDJdW0NIMl1bTkhdW0NASF0oW0NIMl0zKVtDQEBIXTJbQ0gyXVtDSDJdW0NAQEhdKFtDQEhdMzQpW0NIMl1bQ0gyXVtOSF1bQ0hdPUM9W0NIXTQ=

>  <s_glide_docking_method>  (1) 
confgen

>  <s_i_glide_gridfile>  (1) 
gpcr_drd2_6luq_protein_autoprepared_prepared

>  <s_lp_Force_Field>  (1) 
S-OPLS

>  <s_lp_Variant>  (1) 
DiffSBDD_10_num_sample_100-1

>  <s_m_source_file>  (1) 
generated__ligand_DiffSBDD_2026-05-06_prepared.sdf

>  <GenAI_Model>  (1) 
DiffSBDD

>  <Protein>  (1) 
generic_title2

$$$$
DiffSBDD_26_num_sample_100
     RDKit          3D

  0  0  0  0  0  0  0  0  0  0999 V3000
M  V30 BEGIN CTAB
M  V30 COUNTS 72 77 0 0 1
M  V30 BEGIN ATOM
M  V30 1 C 6.909735 9.363720 -22.129659 0
M  V30 2 C 10.418481 7.023040 -8.653345 0
M  V30 3 C 7.202581 2.327044 -16.591261 0
M  V30 4 C 9.037075 7.393984 -11.260782 0
M  V30 5 F 7.164732 6.496078 -14.293532 0
M  V30 6 C 7.427799 4.783277 -19.945459 0 CFG=1
M  V30 7 C 8.844721 4.095326 -16.822313 0
M  V30 8 N 10.977312 8.354652 -6.900261 0
M  V30 9 C 5.626695 6.807341 -17.242256 0
M  V30 10 C 5.782757 6.393909 -18.712810 0 CFG=1
M  V30 11 C 5.274893 7.479440 -19.673965 0
M  V30 12 C 9.220693 6.119869 -10.673073 0
M  V30 13 C 10.264606 7.300171 -7.277219 0
M  V30 14 C 8.044917 5.091838 -12.556842 0
M  V30 15 N 11.903380 8.199673 -10.290395 0
M  V30 16 C 11.301077 7.973361 -9.071859 0
M  V30 17 O 11.642068 8.800930 -8.052057 0
M  V30 18 C 6.366490 1.203139 -17.172746 0
M  V30 19 C 6.953473 6.904396 -21.516084 0 CFG=2
M  V30 20 C 9.417070 6.580871 -6.292691 0
M  V30 21 N 9.834839 5.973126 -9.413410 0
M  V30 22 C 7.763543 6.165796 -20.450905 0 CFG=1
M  V30 23 C 7.601364 8.241930 -21.865198 0
M  V30 24 C 8.547898 3.780233 -19.694153 0
M  V30 25 C 8.344207 7.514091 -12.480190 0
M  V30 26 C 8.671605 4.360654 -15.455630 0
M  V30 27 C 5.394218 9.441233 -22.120160 0
M  V30 28 C 7.213636 5.993701 -19.047123 0 CFG=2
M  V30 29 C 7.497372 3.838789 -13.237066 0
M  V30 30 C 7.843325 6.368587 -13.127572 0
M  V30 31 C 8.727212 4.974744 -11.328734 0
M  V30 32 C 4.747058 8.043641 -22.110868 0
M  V30 33 O 8.189460 2.761998 -18.757577 0
M  V30 34 C 8.083499 3.062358 -17.412377 0
M  V30 35 C 5.451354 7.063504 -21.148499 0 CFG=2
M  V30 36 C 7.748193 3.582628 -14.723275 0
M  V30 37 N 7.034839 2.569976 -15.269349 0
M  V30 38 H 7.441215 10.274894 -22.366273 0
M  V30 39 H 12.555258 8.955059 -10.447386 0
M  V30 40 H 9.388626 8.280866 -10.762750 0
M  V30 41 H 6.533042 4.328990 -20.367560 0
M  V30 42 H 9.542068 4.676186 -17.402521 0
M  V30 43 H 6.229386 7.685392 -17.008168 0
M  V30 44 H 5.934094 5.999987 -16.575699 0
M  V30 45 H 4.587228 7.046159 -17.012265 0
M  V30 46 H 5.158050 5.511356 -18.853710 0
M  V30 47 H 4.226477 7.686041 -19.465021 0
M  V30 48 H 5.806867 8.411830 -19.491871 0
M  V30 49 H 11.695191 7.646257 -11.108639 0
M  V30 50 H 7.007757 0.447854 -17.630959 0
M  V30 51 H 5.695974 1.599204 -17.936445 0
M  V30 52 H 5.760829 0.719237 -16.403293 0
M  V30 53 H 7.019515 6.308622 -22.427389 0
M  V30 54 H 9.289319 5.550446 -6.614568 0
M  V30 55 H 8.423163 7.024061 -6.290177 0
M  V30 56 H 9.586711 5.125645 -8.924712 0
M  V30 57 H 8.832677 6.359758 -20.523180 0
M  V30 58 H 8.681427 8.264647 -21.895090 0
M  V30 59 H 8.744384 3.274890 -20.640652 0
M  V30 60 H 9.479234 4.284654 -19.445154 0
M  V30 61 H 8.186329 8.488879 -12.913600 0
M  V30 62 H 9.235036 5.146274 -14.978778 0
M  V30 63 H 5.058809 9.995040 -22.997704 0
M  V30 64 H 5.076691 10.010625 -21.245865 0
M  V30 65 H 7.937853 6.190690 -18.261610 0
M  V30 66 H 7.879095 2.967411 -12.704576 0
M  V30 67 H 6.419665 3.837156 -13.070875 0
M  V30 68 H 8.858842 4.001724 -10.878659 0
M  V30 69 H 3.686367 8.128168 -21.873097 0
M  V30 70 H 4.791346 7.630654 -23.119607 0
M  V30 71 H 4.967660 6.092860 -21.269440 0
M  V30 72 H 9.834206 6.591911 -5.286234 0
M  V30 END ATOM
M  V30 BEGIN BOND
M  V30 1 1 10 9
M  V30 2 1 11 10
M  V30 3 1 12 4
M  V30 4 1 13 2
M  V30 5 2 13 8
M  V30 6 2 16 2
M  V30 7 1 16 15
M  V30 8 1 17 8
M  V30 9 1 17 16
M  V30 10 1 18 3
M  V30 11 1 20 13
M  V30 12 1 21 2
M  V30 13 1 21 12
M  V30 14 1 22 6
M  V30 15 1 22 19
M  V30 16 2 23 1
M  V30 17 1 23 19
M  V30 18 1 24 6
M  V30 19 2 25 4
M  V30 20 2 26 7
M  V30 21 1 27 1
M  V30 22 1 28 6
M  V30 23 1 28 10
M  V30 24 1 28 22
M  V30 25 1 29 14
M  V30 26 1 30 5
M  V30 27 2 30 14
M  V30 28 1 30 25
M  V30 29 2 31 12
M  V30 30 1 31 14
M  V30 31 1 32 27
M  V30 32 1 33 24
M  V30 33 2 34 3
M  V30 34 1 34 7
M  V30 35 1 34 33
M  V30 36 1 35 11
M  V30 37 1 35 19
M  V30 38 1 35 32
M  V30 39 1 36 26
M  V30 40 1 36 29
M  V30 41 1 37 3
M  V30 42 2 37 36
M  V30 43 1 38 1
M  V30 44 1 39 15
M  V30 45 1 40 4
M  V30 46 1 6 41 CFG=3
M  V30 47 1 42 7
M  V30 48 1 43 9
M  V30 49 1 44 9
M  V30 50 1 45 9
M  V30 51 1 10 46 CFG=1
M  V30 52 1 47 11
M  V30 53 1 48 11
M  V30 54 1 49 15
M  V30 55 1 50 18
M  V30 56 1 51 18
M  V30 57 1 52 18
M  V30 58 1 19 53 CFG=3
M  V30 59 1 54 20
M  V30 60 1 55 20
M  V30 61 1 56 21
M  V30 62 1 22 57 CFG=1
M  V30 63 1 58 23
M  V30 64 1 59 24
M  V30 65 1 60 24
M  V30 66 1 61 25
M  V30 67 1 62 26
M  V30 68 1 63 27
M  V30 69 1 64 27
M  V30 70 1 28 65 CFG=1
M  V30 71 1 66 29
M  V30 72 1 67 29
M  V30 73 1 68 31
M  V30 74 1 69 32
M  V30 75 1 70 32
M  V30 76 1 35 71 CFG=1
M  V30 77 1 72 20
M  V30 END BOND
M  V30 END CTAB
M  END
>  <i_epik_Tot_Q>  (1) 
0

>  <i_epik_Tot_abs_Q>  (1) 
0

>  <i_i_glide_confnum>  (1) 
83

>  <i_i_glide_lignum>  (1) 
41

>  <i_i_glide_posenum>  (1) 
360

>  <i_i_glide_rotatable_bonds>  (1) 
7

>  <i_lp_mmshare_version>  (1) 
72125

>  <i_m_source_file_index>  (1) 
27

>  <i_f3d_flags>  (1) 
0

>  <num_sample>  (1) 
100

>  <b_lp_Chiralities_Consistent>  (1) 
1

>  <r_epik_Charging_Adjusted_Penalty>  (1) 
0

>  <r_epik_Ionization_Penalty>  (1) 
0.044548018534552827

>  <r_epik_Ionization_Penalty_Charging>  (1) 
0

>  <r_epik_Ionization_Penalty_Neutral>  (1) 
0.044548018534552827

>  <r_epik_State_Penalty>  (1) 
-0

>  <r_glide_ring_energy>  (1) 
0

>  <r_i_docking_score>  (1) 
-4.7972710126046803

>  <r_i_glide_ecoul>  (1) 
-1.7947137152199748

>  <r_i_glide_eff_state_penalty>  (1) 
-0

>  <r_i_glide_einternal>  (1) 
4.6813079356914677

>  <r_i_glide_emodel>  (1) 
-48.248189470305796

>  <r_i_glide_emodel_strain>  (1) 
1.6461418581040732

>  <r_i_glide_energy>  (1) 
-40.278300605682915

>  <r_i_glide_erotb>  (1) 
0.5661782271396133

>  <r_i_glide_esite>  (1) 
-0.04766758304710722

>  <r_i_glide_evdw>  (1) 
-38.483586890462938

>  <r_i_glide_gscore>  (1) 
-4.7972710126046803

>  <r_i_glide_gscore_strain>  (1) 
0

>  <r_i_glide_hbond>  (1) 
0

>  <r_i_glide_ligand_efficiency>  (1) 
-0.12965597331364001

>  <r_i_glide_ligand_efficiency_ln>  (1) 
-1.0404156186449194

>  <r_i_glide_ligand_efficiency_sa>  (1) 
-0.43204246747213587

>  <r_i_glide_lipo>  (1) 
-2.2028386780615326

>  <r_i_glide_metal>  (1) 
-0

>  <r_i_glide_rewards>  (1) 
-0.91955657682951053

>  <r_lp_Energy>  (1) 
47.597484999999999

>  <r_lp_tautomer_probability>  (1) 
1

>  <s_epik_cmdline>  (1) 
J2VwaWtfcHl0aG9uJywgJy1waHQnLCAnMS4wJywgJy1waCcsICc3LjQnLCAnLXRuJywgJzgnLCAnLW1hJywgJzUwMCcsICctaW1hZScsICc8aW5maWxlLm1hZT4nLCAnLW9tYWUnLCAnPG91dGZpbGUubWFlPic=

>  <s_epik_input>  (1) 
W0NIXTE9W0NIXVtDSDJdW0NIMl1bQ0BASF0yW0NIMl1bQ0BIXShbQ0gzXSlbQ0hdKFtDQEBIXTNbQ0BIXTEyKVtDQEBIXTNbQ0gyXU9jKGM0W0NIM10pW2NIXVtjSF1jKG40KVtDSDJdYyhbY0hdNSljKEYpW2NIXVtjSF1jNVtOSF1bQ0BIXTZDKD1bQ0gyXSlbTkhdT0MvNj1OXFtIXQ==

>  <s_glide_docking_method>  (1) 
confgen

>  <s_i_glide_gridfile>  (1) 
gpcr_drd2_6luq_protein_autoprepared_prepared

>  <s_lp_Force_Field>  (1) 
S-OPLS

>  <s_lp_Variant>  (1) 
DiffSBDD_26_num_sample_100-1

>  <s_m_source_file>  (1) 
generated__ligand_DiffSBDD_2026-05-06_prepared.sdf

>  <GenAI_Model>  (1) 
DiffSBDD

>  <Protein>  (1) 
generic_title2

$$$$
DiffSBDD_63_num_sample_100
     RDKit          3D

  0  0  0  0  0  0  0  0  0  0999 V3000
M  V30 BEGIN CTAB
M  V30 COUNTS 56 56 0 0 1
M  V30 BEGIN ATOM
M  V30 1 C 5.434783 6.169220 -15.549435 0
M  V30 2 C 10.932784 6.963112 -7.722796 0
M  V30 3 C 13.293100 8.399824 -8.428999 0
M  V30 4 C 9.203162 6.722168 -10.828783 0
M  V30 5 C 7.195433 2.116893 -13.306684 0
M  V30 6 C 11.018652 7.517293 -9.130385 0
M  V30 7 C 10.739091 8.059666 -6.668892 0 CFG=1
M  V30 8 C 6.274682 3.348383 -13.219528 0
M  V30 9 C 6.952493 4.676126 -13.523475 0
M  V30 10 C 6.997016 5.463738 -17.398646 0
M  V30 11 C 13.045498 9.080816 -7.091620 0
M  V30 12 C 7.060076 5.640227 -12.589059 0
M  V30 13 C 6.083596 6.161702 -18.420153 0
M  V30 14 C 6.486149 0.829344 -12.868007 0
M  V30 15 C 12.124583 8.510773 -9.415358 0
M  V30 16 N 9.015152 7.081028 -12.149762 0
M  V30 17 O 10.234857 7.446564 -5.491670 0
M  V30 18 C 7.498500 4.843052 -14.944956 0
M  V30 19 C 6.562949 5.537231 -15.936821 0
M  V30 20 C 11.936766 8.943599 -6.335056 0
M  V30 21 C 7.723023 6.988892 -12.809797 0
M  V30 22 C 11.109480 6.598262 -4.753475 0
M  V30 23 C 10.158116 7.162391 -10.052509 0
M  V30 24 H 5.145259 6.210005 -14.511361 0
M  V30 25 H 4.789442 6.652377 -16.266688 0
M  V30 26 H 10.081095 6.280921 -7.666814 0
M  V30 27 H 11.802930 6.352487 -7.491663 0
M  V30 28 H 13.629556 7.371965 -8.291651 0
M  V30 29 H 14.144513 8.916404 -8.868629 0
M  V30 30 H 8.466657 6.018485 -10.472980 0
M  V30 31 H 8.081641 2.273181 -12.691360 0
M  V30 32 H 7.553870 1.972357 -14.324521 0
M  V30 33 H 9.945102 8.726039 -7.008993 0
M  V30 34 H 5.434846 3.241017 -13.891670 0
M  V30 35 H 5.845673 3.395604 -12.217546 0
M  V30 36 H 7.088317 4.411235 -17.669264 0
M  V30 37 H 7.999712 5.884617 -17.473563 0
M  V30 38 H 13.837204 9.726966 -6.736439 0
M  V30 39 H 6.654545 5.466134 -11.602470 0
M  V30 40 H 6.487921 6.058907 -19.427455 0
M  V30 41 H 5.993695 7.228578 -18.212760 0
M  V30 42 H 5.084085 5.725471 -18.426789 0
M  V30 43 H 7.157003 -0.027049 -12.934339 0
M  V30 44 H 5.621835 0.620566 -13.499287 0
M  V30 45 H 6.137325 0.896332 -11.838064 0
M  V30 46 H 11.714537 9.521568 -9.393582 0
M  V30 47 H 12.490313 8.351496 -10.431031 0
M  V30 48 H 9.579663 7.854463 -12.467953 0
M  V30 49 H 8.441815 5.388905 -14.920399 0
M  V30 50 H 7.755155 3.869050 -15.355251 0
M  V30 51 H 11.874147 9.485294 -5.402682 0
M  V30 52 H 7.067344 7.759523 -12.402522 0
M  V30 53 H 7.834971 7.216738 -13.868507 0
M  V30 54 H 10.561621 6.169234 -3.914756 0
M  V30 55 H 11.954032 7.147984 -4.338679 0
M  V30 56 H 11.489044 5.769422 -5.348533 0
M  V30 END ATOM
M  V30 BEGIN BOND
M  V30 1 1 6 2
M  V30 2 1 7 2
M  V30 3 1 8 5
M  V30 4 1 9 8
M  V30 5 1 11 3
M  V30 6 2 12 9
M  V30 7 1 13 10
M  V30 8 1 14 5
M  V30 9 1 15 3
M  V30 10 1 15 6
M  V30 11 1 16 4
M  V30 12 1 17 7
M  V30 13 1 18 9
M  V30 14 2 19 1
M  V30 15 1 19 10
M  V30 16 1 19 18
M  V30 17 1 20 7
M  V30 18 2 20 11
M  V30 19 1 21 12
M  V30 20 1 21 16
M  V30 21 1 22 17
M  V30 22 2 23 4
M  V30 23 2 23 6
M  V30 24 1 24 1
M  V30 25 1 25 1
M  V30 26 1 26 2
M  V30 27 1 27 2
M  V30 28 1 28 3
M  V30 29 1 29 3
M  V30 30 1 30 4
M  V30 31 1 31 5
M  V30 32 1 32 5
M  V30 33 1 7 33 CFG=3
M  V30 34 1 34 8
M  V30 35 1 35 8
M  V30 36 1 36 10
M  V30 37 1 37 10
M  V30 38 1 38 11
M  V30 39 1 39 12
M  V30 40 1 40 13
M  V30 41 1 41 13
M  V30 42 1 42 13
M  V30 43 1 43 14
M  V30 44 1 44 14
M  V30 45 1 45 14
M  V30 46 1 46 15
M  V30 47 1 47 15
M  V30 48 1 48 16
M  V30 49 1 49 18
M  V30 50 1 50 18
M  V30 51 1 51 20
M  V30 52 1 52 21
M  V30 53 1 53 21
M  V30 54 1 54 22
M  V30 55 1 55 22
M  V30 56 1 56 22
M  V30 END BOND
M  V30 END CTAB
M  END
>  <i_epik_Tot_Q>  (1) 
0

>  <i_epik_Tot_abs_Q>  (1) 
0

>  <i_i_glide_confnum>  (1) 
177

>  <i_i_glide_lignum>  (1) 
126

>  <i_i_glide_posenum>  (1) 
294

>  <i_i_glide_rotatable_bonds>  (1) 
9

>  <i_lp_mmshare_version>  (1) 
72125

>  <i_m_source_file_index>  (1) 
64

>  <i_f3d_flags>  (1) 
0

>  <num_sample>  (1) 
100

>  <b_lp_Chiralities_Consistent>  (1) 
1

>  <r_epik_Charging_Adjusted_Penalty>  (1) 
0

>  <r_epik_Ionization_Penalty>  (1) 
2.3151810028890752e-06

>  <r_epik_Ionization_Penalty_Charging>  (1) 
0

>  <r_epik_Ionization_Penalty_Neutral>  (1) 
2.3151810028890752e-06

>  <r_epik_State_Penalty>  (1) 
-0

>  <r_glide_ring_energy>  (1) 
0

>  <r_i_docking_score>  (1) 
-4.7926662542835423

>  <r_i_glide_ecoul>  (1) 
0.39298348900960883

>  <r_i_glide_eff_state_penalty>  (1) 
-0

>  <r_i_glide_einternal>  (1) 
5.8674469544049881

>  <r_i_glide_emodel>  (1) 
-33.487724787038701

>  <r_i_glide_emodel_strain>  (1) 
0.15742137729889194

>  <r_i_glide_energy>  (1) 
-27.335909692021616

>  <r_i_glide_erotb>  (1) 
1.3082352225513891

>  <r_i_glide_esite>  (1) 
-0.0190811055200843

>  <r_i_glide_evdw>  (1) 
-27.728893181031225

>  <r_i_glide_gscore>  (1) 
-4.7926662542835423

>  <r_i_glide_gscore_strain>  (1) 
0

>  <r_i_glide_hbond>  (1) 
0

>  <r_i_glide_ligand_efficiency>  (1) 
-0.20837679366450185

>  <r_i_glide_ligand_efficiency_ln>  (1) 
-1.1589101577806804

>  <r_i_glide_ligand_efficiency_sa>  (1) 
-0.59259588286981968

>  <r_i_glide_lipo>  (1) 
-2.6380575840995748

>  <r_i_glide_metal>  (1) 
-0

>  <r_i_glide_rewards>  (1) 
-2.1162656515151523

>  <r_lp_Energy>  (1) 
-11.675697

>  <r_lp_tautomer_probability>  (1) 
1

>  <s_epik_cmdline>  (1) 
J2VwaWtfcHl0aG9uJywgJy1waHQnLCAnMS4wJywgJy1waCcsICc3LjQnLCAnLXRuJywgJzgnLCAnLW1hJywgJzUwMCcsICctaW1hZScsICc8aW5maWxlLm1hZT4nLCAnLW9tYWUnLCAnPG91dGZpbGUubWFlPic=

>  <s_epik_input>  (1) 
W0NIM11bQ0gyXUMoPVtDSDJdKVtDSDJdQyhcW0NIMl1bQ0gyXVtDSDNdKT1bQ0hdL1tDSDJdW05IXVtDSF09Qz1DMVtDSDJdW0NAQEhdKE9bQ0gzXSlbQ0hdPVtDSF1bQ0gyXVtDSDJdMQ==

>  <s_glide_docking_method>  (1) 
confgen

>  <s_i_glide_gridfile>  (1) 
gpcr_drd2_6luq_protein_autoprepared_prepared

>  <s_lp_Force_Field>  (1) 
S-OPLS

>  <s_lp_Variant>  (1) 
DiffSBDD_63_num_sample_100-2

>  <s_m_source_file>  (1) 
generated__ligand_DiffSBDD_2026-05-06_prepared.sdf

>  <GenAI_Model>  (1) 
DiffSBDD

>  <Protein>  (1) 
generic_title2

$$$$
DiffSBDD_81_num_sample_100
     RDKit          3D

  0  0  0  0  0  0  0  0  0  0999 V3000
M  V30 BEGIN CTAB
M  V30 COUNTS 65 67 0 0 1
M  V30 BEGIN ATOM
M  V30 1 C 8.866138 5.052365 -15.774072 0 CFG=1
M  V30 2 C 8.266038 4.827556 -10.443314 0 CFG=1
M  V30 3 C 5.909068 10.621895 -23.002662 0
M  V30 4 C 8.114198 6.239518 -18.745454 0 CFG=1
M  V30 5 O 9.548241 5.940369 -12.828083 0
M  V30 6 O 6.114700 6.015867 -15.608645 0
M  V30 7 C 5.941831 7.114463 -19.604477 0
M  V30 8 N 7.173420 6.586166 -19.855169 0
M  V30 9 C 8.724852 3.997419 -11.666264 0
M  V30 10 C 9.070439 4.810526 -12.922525 0
M  V30 11 C 10.414150 6.274981 -7.463747 0
M  V30 12 S 4.626842 9.893732 -22.113763 0
M  V30 13 C 9.147999 6.033119 -8.291173 0
M  V30 14 C 7.983487 7.629211 -22.001660 0
M  V30 15 C 7.970486 4.758889 -18.280436 0 CFG=2
M  V30 16 C 5.610357 8.534368 -21.664643 0
M  V30 17 C 7.626000 6.333256 -21.235569 0
M  V30 18 O 5.526676 7.338647 -18.467699 0
M  V30 19 C 6.636329 5.284790 -14.741300 0
M  V30 20 N 7.893798 4.853470 -14.927248 0
M  V30 21 C 8.790364 4.171959 -14.261130 0 CFG=1
M  V30 22 C 9.576918 6.632410 -19.065787 0
M  V30 23 O 6.636316 4.579985 -17.892402 0
M  V30 24 C 5.054427 7.435475 -20.814727 0
M  V30 25 O 9.038794 2.870300 -16.974457 0
M  V30 26 O 6.025218 4.944161 -13.702095 0 CHG=-1
M  V30 27 C 8.899917 4.287674 -17.110870 0 CFG=2
M  V30 28 C 7.044102 9.855831 -22.960345 0
M  V30 29 C 9.443643 5.513482 -9.708862 0
M  V30 30 N 7.217737 5.769253 -10.856999 0 CHG=1
M  V30 31 C 7.854900 2.097536 -16.829022 0
M  V30 32 C 6.883977 8.645909 -22.194637 0
M  V30 33 H 9.261171 6.063337 -15.798840 0
M  V30 34 H 7.781055 4.169329 -9.727657 0
M  V30 35 H 5.756119 11.563431 -23.507300 0
M  V30 36 H 7.836069 6.852853 -17.891585 0
M  V30 37 H 7.919455 3.322662 -11.952671 0
M  V30 38 H 9.574874 3.368921 -11.402804 0
M  V30 39 H 10.151136 6.613823 -6.461116 0
M  V30 40 H 11.008161 5.368520 -7.362414 0
M  V30 41 H 11.044079 7.039804 -7.918523 0
M  V30 42 H 8.634535 6.985154 -8.343455 0
M  V30 43 H 8.494858 5.343970 -7.755885 0
M  V30 44 H 8.375164 7.347388 -22.979238 0
M  V30 45 H 8.818051 8.115104 -21.499091 0
M  V30 46 H 8.154245 4.111032 -19.137612 0
M  V30 47 H 8.484371 5.665711 -21.246515 0
M  V30 48 H 6.870963 5.768988 -21.781467 0
M  V30 49 H 8.628173 3.098151 -14.260261 0
M  V30 50 H 10.205837 6.568928 -18.179613 0
M  V30 51 H 10.039223 5.983666 -19.806428 0
M  V30 52 H 9.648288 7.657706 -19.424045 0
M  V30 53 H 6.441359 5.157798 -17.150712 0
M  V30 54 H 4.854386 6.541931 -21.404807 0
M  V30 55 H 4.085919 7.756313 -20.430327 0
M  V30 56 H 9.903808 4.500893 -17.472644 0
M  V30 57 H 7.975872 10.110548 -23.447101 0
M  V30 58 H 10.229333 4.768060 -9.595475 0
M  V30 59 H 9.872267 6.318887 -10.306214 0
M  V30 60 H 7.543812 6.288912 -11.660211 0
M  V30 61 H 6.369604 5.289120 -11.122795 0
M  V30 62 H 8.121612 1.078637 -16.546135 0
M  V30 63 H 7.190603 2.494856 -16.063087 0
M  V30 64 H 7.307377 2.042282 -17.769375 0
M  V30 65 H 7.030020 6.456406 -10.115962 0
M  V30 END ATOM
M  V30 BEGIN BOND
M  V30 1 1 8 4
M  V30 2 1 8 7
M  V30 3 1 9 2
M  V30 4 2 10 5
M  V30 5 1 10 9
M  V30 6 1 12 3
M  V30 7 1 13 11
M  V30 8 1 15 4
M  V30 9 1 16 12
M  V30 10 1 17 8
M  V30 11 1 17 14
M  V30 12 2 18 7
M  V30 13 2 19 6
M  V30 14 1 20 1
M  V30 15 1 20 19
M  V30 16 1 21 1
M  V30 17 1 21 10
M  V30 18 1 21 20
M  V30 19 1 22 4
M  V30 20 1 23 15
M  V30 21 1 24 7
M  V30 22 1 24 16
M  V30 23 1 26 19
M  V30 24 1 27 1
M  V30 25 1 27 15
M  V30 26 1 27 25
M  V30 27 2 28 3
M  V30 28 1 29 2
M  V30 29 1 29 13
M  V30 30 1 30 2
M  V30 31 1 31 25
M  V30 32 1 32 14
M  V30 33 2 32 16
M  V30 34 1 32 28
M  V30 35 1 1 33 CFG=1
M  V30 36 1 2 34 CFG=1
M  V30 37 1 35 3
M  V30 38 1 4 36 CFG=1
M  V30 39 1 37 9
M  V30 40 1 38 9
M  V30 41 1 39 11
M  V30 42 1 40 11
M  V30 43 1 41 11
M  V30 44 1 42 13
M  V30 45 1 43 13
M  V30 46 1 44 14
M  V30 47 1 45 14
M  V30 48 1 15 46 CFG=3
M  V30 49 1 47 17
M  V30 50 1 48 17
M  V30 51 1 21 49 CFG=3
M  V30 52 1 50 22
M  V30 53 1 51 22
M  V30 54 1 52 22
M  V30 55 1 53 23
M  V30 56 1 54 24
M  V30 57 1 55 24
M  V30 58 1 27 56 CFG=3
M  V30 59 1 57 28
M  V30 60 1 58 29
M  V30 61 1 59 29
M  V30 62 1 60 30
M  V30 63 1 61 30
M  V30 64 1 62 31
M  V30 65 1 63 31
M  V30 66 1 64 31
M  V30 67 1 65 30
M  V30 END BOND
M  V30 END CTAB
M  END
>  <i_epik_Tot_Q>  (1) 
0

>  <i_epik_Tot_abs_Q>  (1) 
2

>  <i_i_glide_confnum>  (1) 
624

>  <i_i_glide_lignum>  (1) 
166

>  <i_i_glide_posenum>  (1) 
261

>  <i_i_glide_rotatable_bonds>  (1) 
12

>  <i_lp_mmshare_version>  (1) 
72125

>  <i_m_source_file_index>  (1) 
82

>  <i_f3d_flags>  (1) 
0

>  <num_sample>  (1) 
100

>  <b_lp_Chiralities_Consistent>  (1) 
1

>  <r_epik_Charging_Adjusted_Penalty>  (1) 
0.020538690311271313

>  <r_epik_Ionization_Penalty>  (1) 
0.011193014289855681

>  <r_epik_Ionization_Penalty_Charging>  (1) 
0.011192617808242357

>  <r_epik_Ionization_Penalty_Neutral>  (1) 
3.9648161332337345e-07

>  <r_epik_State_Penalty>  (1) 
0.0093460725030289557

>  <r_glide_ring_energy>  (1) 
0

>  <r_i_docking_score>  (1) 
-4.7922580525983047

>  <r_i_glide_ecoul>  (1) 
-7.575587873276711

>  <r_i_glide_eff_state_penalty>  (1) 
0.0093460725030289557

>  <r_i_glide_einternal>  (1) 
26.879549865039667

>  <r_i_glide_emodel>  (1) 
-31.113904135727608

>  <r_i_glide_emodel_strain>  (1) 
0.33276977611143366

>  <r_i_glide_energy>  (1) 
-34.744425660391954

>  <r_i_glide_erotb>  (1) 
0.64619886402953775

>  <r_i_glide_esite>  (1) 
-0.10000000000000001

>  <r_i_glide_evdw>  (1) 
-27.168837787115244

>  <r_i_glide_gscore>  (1) 
-4.8016041251013339

>  <r_i_glide_gscore_strain>  (1) 
0

>  <r_i_glide_hbond>  (1) 
-0.20000000000000001

>  <r_i_glide_ligand_efficiency>  (1) 
-0.14975806414369702

>  <r_i_glide_ligand_efficiency_ln>  (1) 
-1.0731172099975437

>  <r_i_glide_ligand_efficiency_sa>  (1) 
-0.47545221712485158

>  <r_i_glide_lipo>  (1) 
-1.2824238230211815

>  <r_i_glide_metal>  (1) 
-0

>  <r_i_glide_rewards>  (1) 
-1.3705990957624208

>  <r_lp_Energy>  (1) 
22.366004999999998

>  <r_lp_tautomer_probability>  (1) 
0.99999996000000102

>  <s_epik_cmdline>  (1) 
J2VwaWtfcHl0aG9uJywgJy1waHQnLCAnMS4wJywgJy1waCcsICc3LjQnLCAnLXRuJywgJzgnLCAnLW1hJywgJzUwMCcsICctaW1hZScsICc8aW5maWxlLm1hZT4nLCAnLW9tYWUnLCAnPG91dGZpbGUubWFlPic=

>  <s_epik_input>  (1) 
W0NIM11bQ0gyXVtDSDJdW0NAQEhdKFtOSDJdKVtDSDJdQyg9TylbQ0BIXTFOKEMoPU8pW09IXSlbQ0BASF0xW0NAQEhdKE9bQ0gzXSlbQ0BASF0oW09IXSlbQ0BASF0oW0NIM10pTihDKD1PKVtDSDJdMilbQ0gyXVtDSDJdYyhjMjMpW2NIXVtjSF1zMw==

>  <s_glide_docking_method>  (1) 
confgen

>  <s_i_glide_gridfile>  (1) 
gpcr_drd2_6luq_protein_autoprepared_prepared

>  <s_lp_Force_Field>  (1) 
S-OPLS

>  <s_lp_Variant>  (1) 
DiffSBDD_81_num_sample_100-1

>  <s_m_source_file>  (1) 
generated__ligand_DiffSBDD_2026-05-06_prepared.sdf

>  <GenAI_Model>  (1) 
DiffSBDD

>  <Protein>  (1) 
generic_title2

$$$$
DiffSBDD_61_num_sample_100
     RDKit          3D

  0  0  0  0  0  0  0  0  0  0999 V3000
M  V30 BEGIN CTAB
M  V30 COUNTS 52 54 0 0 1
M  V30 BEGIN ATOM
M  V30 1 N 10.844262 7.980431 -6.394329 0 CFG=2 CHG=1
M  V30 2 C 7.578575 3.727379 -16.497935 0
M  V30 3 C 7.707292 4.489436 -15.157042 0 CFG=1
M  V30 4 O 12.276959 7.638159 -3.024827 0
M  V30 5 C 12.235117 9.029624 -3.182291 0
M  V30 6 O 8.940984 5.189914 -15.176136 0
M  V30 7 C 8.674280 5.467650 -10.660188 0
M  V30 8 O 5.434839 7.581168 -15.491669 0
M  V30 9 C 9.635247 6.636123 -10.379829 0
M  V30 10 C 7.469587 4.354443 -12.665705 0 CFG=1
M  V30 11 C 9.791717 6.939310 -6.482150 0
M  V30 12 C 6.512240 5.460901 -14.911525 0 CFG=2
M  V30 13 C 6.638025 6.846946 -15.576583 0
M  V30 14 C 9.139609 6.931266 -7.867730 0
M  V30 15 C 7.720577 3.535320 -13.940779 0
M  V30 16 C 10.196525 6.676773 -8.951228 0 CFG=2
M  V30 17 O 7.199349 4.384400 -17.493970 0 CHG=-1
M  V30 18 C 11.887927 7.782437 -7.423735 0
M  V30 19 C 8.740968 5.045337 -12.134766 0
M  V30 20 C 11.293844 7.748222 -8.836809 0
M  V30 21 C 11.768697 7.120150 -4.192554 0
M  V30 22 C 11.434839 8.140888 -5.013681 0
M  V30 23 C 11.719041 9.369301 -4.409561 0
M  V30 24 S 6.234840 5.597251 -13.115165 0
M  V30 25 O 7.866207 2.508967 -16.493326 0
M  V30 26 H 12.604957 9.598894 -2.340779 0
M  V30 27 H 9.067098 5.586304 -14.329833 0
M  V30 28 H 7.661522 5.769303 -10.388286 0
M  V30 29 H 8.913212 4.605071 -10.036948 0
M  V30 30 H 5.542618 8.393538 -15.962472 0
M  V30 31 H 10.480396 6.569301 -11.066335 0
M  V30 32 H 9.136572 7.576969 -10.619638 0
M  V30 33 H 7.064422 3.702791 -11.891667 0
M  V30 34 H 10.207221 5.956328 -6.257945 0
M  V30 35 H 9.034839 7.144938 -5.737126 0
M  V30 36 H 5.611585 4.986543 -15.296901 0
M  V30 37 H 6.899333 6.748403 -16.629479 0
M  V30 38 H 7.428538 7.421186 -15.091667 0
M  V30 39 H 8.649490 7.891424 -8.026803 0
M  V30 40 H 8.359150 6.169301 -7.905393 0
M  V30 41 H 8.634839 2.948182 -13.873702 0
M  V30 42 H 6.908090 2.813349 -14.043307 0
M  V30 43 H 10.634841 5.702187 -8.740871 0
M  V30 44 H 12.391377 6.842741 -7.207143 0
M  V30 45 H 12.634849 8.574830 -7.355639 0
M  V30 46 H 9.606945 4.394372 -12.265376 0
M  V30 47 H 8.938825 5.932527 -12.735341 0
M  V30 48 H 12.088386 7.550739 -9.557455 0
M  V30 49 H 10.885353 8.727667 -9.091576 0
M  V30 50 H 11.722079 6.041812 -4.255301 0
M  V30 51 H 11.571867 10.366084 -4.799160 0
M  V30 52 H 10.376888 8.839638 -6.645728 0
M  V30 END ATOM
M  V30 BEGIN BOND
M  V30 1 1 3 2
M  V30 2 1 5 4
M  V30 3 1 3 6 CFG=3
M  V30 4 1 9 7
M  V30 5 1 11 1
M  V30 6 1 12 3
M  V30 7 1 13 8
M  V30 8 1 13 12
M  V30 9 1 14 11
M  V30 10 1 15 3
M  V30 11 1 15 10
M  V30 12 1 16 9
M  V30 13 1 16 14
M  V30 14 1 17 2
M  V30 15 1 18 1
M  V30 16 1 19 7
M  V30 17 1 19 10
M  V30 18 1 20 16
M  V30 19 1 20 18
M  V30 20 1 21 4
M  V30 21 1 22 1
M  V30 22 2 22 21
M  V30 23 2 23 5
M  V30 24 1 23 22
M  V30 25 1 24 10
M  V30 26 1 24 12
M  V30 27 2 25 2
M  V30 28 1 26 5
M  V30 29 1 27 6
M  V30 30 1 28 7
M  V30 31 1 29 7
M  V30 32 1 30 8
M  V30 33 1 31 9
M  V30 34 1 32 9
M  V30 35 1 10 33 CFG=1
M  V30 36 1 34 11
M  V30 37 1 35 11
M  V30 38 1 12 36 CFG=3
M  V30 39 1 37 13
M  V30 40 1 38 13
M  V30 41 1 39 14
M  V30 42 1 40 14
M  V30 43 1 41 15
M  V30 44 1 42 15
M  V30 45 1 16 43 CFG=1
M  V30 46 1 44 18
M  V30 47 1 45 18
M  V30 48 1 46 19
M  V30 49 1 47 19
M  V30 50 1 48 20
M  V30 51 1 49 20
M  V30 52 1 50 21
M  V30 53 1 51 23
M  V30 54 1 1 52 CFG=3
M  V30 END BOND
M  V30 END CTAB
M  END
>  <i_epik_Tot_Q>  (1) 
0

>  <i_epik_Tot_abs_Q>  (1) 
2

>  <i_i_glide_confnum>  (1) 
178

>  <i_i_glide_lignum>  (1) 
121

>  <i_i_glide_posenum>  (1) 
100

>  <i_i_glide_rotatable_bonds>  (1) 
9

>  <i_lp_mmshare_version>  (1) 
72125

>  <i_m_source_file_index>  (1) 
62

>  <i_f3d_flags>  (1) 
0

>  <num_sample>  (1) 
100

>  <b_lp_Chiralities_Consistent>  (1) 
1

>  <r_epik_Charging_Adjusted_Penalty>  (1) 
0.30587031255842323

>  <r_epik_Ionization_Penalty>  (1) 
0.15296771237530521

>  <r_epik_Ionization_Penalty_Charging>  (1) 
0.15296734445016963

>  <r_epik_Ionization_Penalty_Neutral>  (1) 
3.6792513557102453e-07

>  <r_epik_State_Penalty>  (1) 
0.15290296810825357

>  <r_glide_ring_energy>  (1) 
0

>  <r_i_docking_score>  (1) 
-4.7875139349002955

>  <r_i_glide_ecoul>  (1) 
-1.3504592881065198

>  <r_i_glide_eff_state_penalty>  (1) 
0.15290296810825357

>  <r_i_glide_einternal>  (1) 
4.5690630908646153

>  <r_i_glide_emodel>  (1) 
-39.812379907399496

>  <r_i_glide_emodel_strain>  (1) 
1.3149866551630822

>  <r_i_glide_energy>  (1) 
-32.429999963322622

>  <r_i_glide_erotb>  (1) 
0.84742595842419921

>  <r_i_glide_esite>  (1) 
0

>  <r_i_glide_evdw>  (1) 
-31.079540675216101

>  <r_i_glide_gscore>  (1) 
-4.9404169030085487

>  <r_i_glide_gscore_strain>  (1) 
0

>  <r_i_glide_hbond>  (1) 
0

>  <r_i_glide_ligand_efficiency>  (1) 
-0.19150055739601182

>  <r_i_glide_ligand_efficiency_ln>  (1) 
-1.1347842727866633

>  <r_i_glide_ligand_efficiency_sa>  (1) 
-0.55995102670358965

>  <r_i_glide_lipo>  (1) 
-2.1497844336171976

>  <r_i_glide_metal>  (1) 
-0

>  <r_i_glide_rewards>  (1) 
-1.8815125008387668

>  <r_lp_Energy>  (1) 
9.158987999999999

>  <s_epik_cmdline>  (1) 
J2VwaWtfcHl0aG9uJywgJy1waHQnLCAnMS4wJywgJy1waCcsICc3LjQnLCAnLXRuJywgJzgnLCAnLW1hJywgJzUwMCcsICctaW1hZScsICc8aW5maWxlLm1hZT4nLCAnLW9tYWUnLCAnPG91dGZpbGUubWFlPic=

>  <s_epik_input>  (1) 
W2NIXTFbY0hdb1tjSF1jMU4yW0NIMl1bQ0gyXVtDSF0oW0NIMl1bQ0gyXTIpW0NIMl1bQ0gyXVtDSDJdW0NASF0oW0NIMl0zKVNbQ0BASF0oW0NIMl1bT0hdKVtDQF0zKFtPSF0pQyg9TylbT0hd

>  <s_glide_docking_method>  (1) 
confgen

>  <s_i_glide_gridfile>  (1) 
gpcr_drd2_6luq_protein_autoprepared_prepared

>  <s_lp_Force_Field>  (1) 
S-OPLS

>  <s_lp_Variant>  (1) 
DiffSBDD_61_num_sample_100-1

>  <s_m_source_file>  (1) 
generated__ligand_DiffSBDD_2026-05-06_prepared.sdf

>  <GenAI_Model>  (1) 
DiffSBDD

>  <Protein>  (1) 
generic_title2

$$$$
DiffSBDD_87_num_sample_100
     RDKit          3D

  0  0  0  0  0  0  0  0  0  0999 V3000
M  V30 BEGIN CTAB
M  V30 COUNTS 51 54 0 0 1
M  V30 BEGIN ATOM
M  V30 1 C 7.555809 6.059968 -21.091024 0
M  V30 2 C 8.572232 5.991357 -18.743805 0
M  V30 3 C 5.682491 6.684987 -19.536033 0
M  V30 4 C 5.617156 6.565030 -12.825711 0
M  V30 5 C 9.846154 7.022905 -8.081409 0
M  V30 6 S 5.835475 5.769311 -15.466382 0
M  V30 7 C 9.964944 7.087161 -9.480217 0
M  V30 8 C 7.630718 7.218169 -13.977649 0
M  V30 9 C 8.594644 6.028766 -20.238097 0
M  V30 10 C 8.648816 5.032854 -9.687919 0
M  V30 11 C 7.531878 3.896092 -17.853640 0
M  V30 12 O 7.742975 8.352283 -11.891674 0
M  V30 13 S 9.471540 6.194792 -12.047103 0
M  V30 14 C 9.128622 5.966724 -7.486012 0
M  V30 15 C 8.530570 4.970186 -8.291077 0
M  V30 16 O 8.048191 6.070541 -22.347501 0
M  V30 17 N 9.464469 6.058795 -22.233759 0
M  V30 18 C 6.077653 6.080988 -20.900148 0
M  V30 19 C 7.389464 5.169399 -18.256621 0
M  V30 20 C 9.362212 6.090813 -10.271144 0
M  V30 21 N 6.765032 6.285598 -11.985203 0
M  V30 22 O 9.418221 4.829376 -12.593239 0
M  V30 23 N 9.775754 6.030130 -20.957482 0
M  V30 24 O 10.624076 7.059803 -12.337543 0
M  V30 25 C 6.025973 5.872119 -18.256048 0 CFG=1
M  V30 26 F 10.418845 7.975799 -7.306940 0
M  V30 27 C 6.146275 6.996157 -14.188036 0 CFG=2
M  V30 28 C 7.884591 7.077544 -12.470600 0 CFG=2
M  V30 29 C 5.850779 6.749282 -16.996644 0
M  V30 30 H 8.494493 6.995271 -18.340509 0
M  V30 31 H 9.498518 5.563563 -18.355214 0
M  V30 32 H 4.604243 6.846788 -19.541737 0
M  V30 33 H 6.120383 7.682464 -19.464356 0
M  V30 34 H 5.013043 5.666046 -12.898300 0
M  V30 35 H 5.038827 7.375604 -12.382842 0
M  V30 36 H 10.508959 7.896924 -9.941172 0
M  V30 37 H 7.834824 8.217071 -14.342086 0
M  V30 38 H 8.233482 6.513744 -14.556460 0
M  V30 39 H 8.186793 4.278212 -10.307168 0
M  V30 40 H 8.499259 3.416015 -17.857965 0
M  V30 41 H 6.682975 3.321091 -17.509150 0
M  V30 42 H 7.434380 8.231563 -10.985834 0
M  V30 43 H 9.034843 5.920686 -6.410155 0
M  V30 44 H 7.976303 4.162240 -7.836517 0
M  V30 45 H 5.624386 6.679236 -21.691721 0
M  V30 46 H 5.670925 5.075789 -21.010623 0
M  V30 47 H 6.585151 6.454937 -10.998157 0
M  V30 48 H 5.277572 5.083259 -18.202113 0
M  V30 49 H 5.643216 7.915901 -14.486400 0
M  V30 50 H 4.906115 7.291034 -17.042157 0
M  V30 51 H 6.634339 7.499803 -16.945827 0
M  V30 END ATOM
M  V30 BEGIN BOND
M  V30 1 2 7 5
M  V30 2 2 9 1
M  V30 3 1 9 2
M  V30 4 1 14 5
M  V30 5 1 15 10
M  V30 6 2 15 14
M  V30 7 1 16 1
M  V30 8 1 17 16
M  V30 9 1 18 1
M  V30 10 1 18 3
M  V30 11 1 19 2
M  V30 12 2 19 11
M  V30 13 1 20 7
M  V30 14 2 20 10
M  V30 15 1 20 13
M  V30 16 1 21 4
M  V30 17 2 22 13
M  V30 18 1 23 9
M  V30 19 2 23 17
M  V30 20 2 24 13
M  V30 21 1 25 3
M  V30 22 1 25 19
M  V30 23 1 26 5
M  V30 24 1 27 4
M  V30 25 1 27 6
M  V30 26 1 27 8
M  V30 27 1 28 8
M  V30 28 1 28 12 CFG=1
M  V30 29 1 28 13
M  V30 30 1 28 21
M  V30 31 1 29 6
M  V30 32 1 29 25
M  V30 33 1 30 2
M  V30 34 1 31 2
M  V30 35 1 32 3
M  V30 36 1 33 3
M  V30 37 1 34 4
M  V30 38 1 35 4
M  V30 39 1 36 7
M  V30 40 1 37 8
M  V30 41 1 38 8
M  V30 42 1 39 10
M  V30 43 1 40 11
M  V30 44 1 41 11
M  V30 45 1 42 12
M  V30 46 1 43 14
M  V30 47 1 44 15
M  V30 48 1 45 18
M  V30 49 1 46 18
M  V30 50 1 47 21
M  V30 51 1 25 48 CFG=1
M  V30 52 1 27 49 CFG=3
M  V30 53 1 50 29
M  V30 54 1 51 29
M  V30 END BOND
M  V30 END CTAB
M  END
>  <i_epik_Tot_Q>  (1) 
0

>  <i_epik_Tot_abs_Q>  (1) 
0

>  <i_i_glide_confnum>  (1) 
54

>  <i_i_glide_lignum>  (1) 
177

>  <i_i_glide_posenum>  (1) 
163

>  <i_i_glide_rotatable_bonds>  (1) 
6

>  <i_lp_mmshare_version>  (1) 
72125

>  <i_m_source_file_index>  (1) 
88

>  <i_f3d_flags>  (1) 
0

>  <num_sample>  (1) 
100

>  <b_lp_Chiralities_Consistent>  (1) 
1

>  <r_epik_Charging_Adjusted_Penalty>  (1) 
0

>  <r_epik_Ionization_Penalty>  (1) 
0.0001098004903757838

>  <r_epik_Ionization_Penalty_Charging>  (1) 
0

>  <r_epik_Ionization_Penalty_Neutral>  (1) 
0.0001098004903757838

>  <r_epik_State_Penalty>  (1) 
-0

>  <r_glide_ring_energy>  (1) 
0.13793408514299585

>  <r_i_docking_score>  (1) 
-4.784098933045736

>  <r_i_glide_ecoul>  (1) 
-6.7222148851014865

>  <r_i_glide_eff_state_penalty>  (1) 
-0

>  <r_i_glide_einternal>  (1) 
5.6231116040663327

>  <r_i_glide_emodel>  (1) 
-41.80382488210433

>  <r_i_glide_emodel_strain>  (1) 
1.0336370229931475

>  <r_i_glide_energy>  (1) 
-35.283654613456534

>  <r_i_glide_erotb>  (1) 
0.51657056341793117

>  <r_i_glide_esite>  (1) 
-0.060583113885645835

>  <r_i_glide_evdw>  (1) 
-28.561439728355047

>  <r_i_glide_gscore>  (1) 
-4.784098933045736

>  <r_i_glide_gscore_strain>  (1) 
0

>  <r_i_glide_hbond>  (1) 
-0.2622606530135988

>  <r_i_glide_ligand_efficiency>  (1) 
-0.16496892872571503

>  <r_i_glide_ligand_efficiency_ln>  (1) 
-1.0954373413858141

>  <r_i_glide_ligand_efficiency_sa>  (1) 
-0.50683681543938364

>  <r_i_glide_lipo>  (1) 
-1.3639782572274119

>  <r_i_glide_metal>  (1) 
-0

>  <r_i_glide_rewards>  (1) 
-1.1774432531540358

>  <r_lp_Energy>  (1) 
18.696739000000001

>  <r_lp_tautomer_probability>  (1) 
1

>  <s_epik_cmdline>  (1) 
J2VwaWtfcHl0aG9uJywgJy1waHQnLCAnMS4wJywgJy1waCcsICc3LjQnLCAnLXRuJywgJzgnLCAnLW1hJywgJzUwMCcsICctaW1hZScsICc8aW5maWxlLm1hZT4nLCAnLW9tYWUnLCAnPG91dGZpbGUubWFlPic=

>  <s_epik_input>  (1) 
bzFubmMoYzEyKVtDSDJdQyg9W0NIMl0pW0NASF0oW0NIMl1bQ0gyXTIpW0NIMl1TW0NAQEhdKFtDSDJdW05IXTMpW0NIMl1bQ0BdMyhbT0hdKVMoPU8pKD1PKWMoW2NIXWM0RilbY0hdW2NIXVtjSF00

>  <s_glide_docking_method>  (1) 
confgen

>  <s_i_glide_gridfile>  (1) 
gpcr_drd2_6luq_protein_autoprepared_prepared

>  <s_lp_Force_Field>  (1) 
S-OPLS

>  <s_lp_Variant>  (1) 
DiffSBDD_87_num_sample_100-1

>  <s_m_source_file>  (1) 
generated__ligand_DiffSBDD_2026-05-06_prepared.sdf

>  <GenAI_Model>  (1) 
DiffSBDD

>  <Protein>  (1) 
generic_title2

$$$$
DiffSBDD_76_num_sample_100
     RDKit          3D

  0  0  0  0  0  0  0  0  0  0999 V3000
M  V30 BEGIN CTAB
M  V30 COUNTS 78 81 0 0 1
M  V30 BEGIN ATOM
M  V30 1 C 6.459116 4.959281 -14.969152 0
M  V30 2 C 6.874947 6.758874 -19.824253 0
M  V30 3 C 6.547128 7.246270 -12.967185 0
M  V30 4 N 5.627475 6.183371 -15.052195 0 CFG=1 CHG=1
M  V30 5 C 6.646577 7.376287 -21.088738 0
M  V30 6 C 11.405650 9.108799 -6.064223 0
M  V30 7 C 12.375133 8.983499 -6.971902 0
M  V30 8 C 10.617439 6.771459 -9.227218 0 CFG=1
M  V30 9 C 7.303519 5.601635 -17.324078 0
M  V30 10 N 9.257991 5.440309 -10.953311 0 CFG=1 CHG=1
M  V30 11 C 9.021179 4.035048 -11.368118 0
M  V30 12 C 6.103441 6.308347 -17.534078 0
M  V30 13 C 12.531421 7.769323 -7.862835 0
M  V30 14 C 4.691541 7.626048 -19.063715 0
M  V30 15 C 8.219963 5.504729 -18.379394 0
M  V30 16 C 8.446366 5.282123 -8.563320 0
M  V30 17 C 7.622687 4.975421 -15.974681 0
M  V30 18 C 8.101356 6.306340 -11.268606 0
M  V30 19 N 8.016066 6.055865 -19.587063 0
M  V30 20 O 9.434849 4.074831 -12.707960 0
M  V30 21 O 5.954129 8.772065 -23.627635 0
M  V30 22 C 11.309845 6.785560 -7.838575 0 CFG=1
M  V30 23 C 5.444537 8.118326 -21.329846 0
M  V30 24 C 7.999924 6.838450 -12.695865 0
M  V30 25 N 9.307969 8.863856 -8.858747 0 CHG=1
M  V30 26 C 9.639444 5.555462 -9.509594 0 CFG=2
M  V30 27 O 7.596800 7.252055 -22.071584 0 CHG=-1
M  V30 28 C 6.234774 7.398801 -14.463101 0
M  V30 29 C 5.876831 6.901572 -18.808045 0
M  V30 30 C 5.075842 6.438731 -16.409555 0
M  V30 31 C 10.275236 8.204424 -9.725106 0
M  V30 32 C 10.419077 8.086585 -5.886699 0
M  V30 33 C 10.363357 7.019237 -6.675794 0
M  V30 34 C 5.182696 8.794326 -22.669932 0
M  V30 35 C 4.481314 8.228677 -20.306681 0
M  V30 36 C 3.855008 9.545132 -22.790595 0
M  V30 37 H 6.825101 4.787389 -13.961102 0
M  V30 38 H 5.834843 4.088490 -15.091738 0
M  V30 39 H 5.842982 6.532661 -12.536653 0
M  V30 40 H 6.368666 8.167999 -12.409041 0
M  V30 41 H 11.371183 9.992504 -5.442262 0
M  V30 42 H 13.115630 9.756384 -7.069524 0
M  V30 43 H 11.442979 6.570633 -9.891455 0
M  V30 44 H 7.968253 3.769351 -11.293525 0
M  V30 45 H 9.612936 3.303419 -10.823291 0
M  V30 46 H 13.399476 7.252320 -7.491671 0
M  V30 47 H 12.851465 8.066773 -8.859794 0
M  V30 48 H 3.937586 7.728292 -18.301790 0
M  V30 49 H 9.152345 4.975357 -18.247013 0
M  V30 50 H 8.775531 4.799625 -7.646632 0
M  V30 51 H 7.893492 6.169307 -8.291674 0
M  V30 52 H 7.728409 4.583951 -8.991622 0
M  V30 53 H 7.993912 3.959294 -16.120774 0
M  V30 54 H 8.458959 5.539723 -15.564065 0
M  V30 55 H 7.175163 5.842293 -10.924638 0
M  V30 56 H 8.234839 7.194622 -10.691671 0
M  V30 57 H 10.197651 3.521500 -12.822411 0
M  V30 58 H 11.666072 5.790140 -7.587445 0
M  V30 59 H 8.648133 7.705504 -12.826337 0
M  V30 60 H 8.354411 6.119531 -13.420131 0
M  V30 61 H 9.259420 9.849744 -9.063268 0
M  V30 62 H 8.381062 8.451497 -9.023032 0
M  V30 63 H 10.234838 4.675932 -9.303392 0
M  V30 64 H 5.473126 8.169305 -14.563002 0
M  V30 65 H 7.101040 7.740431 -15.031203 0
M  V30 66 H 4.246880 5.769301 -16.621020 0
M  V30 67 H 4.639178 7.435827 -16.400431 0
M  V30 68 H 11.142993 8.858962 -9.727434 0
M  V30 69 H 9.976704 8.239743 -10.770778 0
M  V30 70 H 9.714780 8.169311 -5.091675 0
M  V30 71 H 9.615938 6.270396 -6.491254 0
M  V30 72 H 3.570482 8.781630 -20.473027 0
M  V30 73 H 3.791171 10.336835 -22.044393 0
M  V30 74 H 3.770139 10.004029 -23.775694 0
M  V30 75 H 3.017952 8.858197 -22.663732 0
M  V30 76 H 9.567230 8.726579 -7.891360 0
M  V30 77 H 4.825786 6.001891 -14.466926 0
M  V30 78 H 10.048789 5.756009 -11.495859 0
M  V30 END ATOM
M  V30 BEGIN BOND
M  V30 1 1 4 1
M  V30 2 2 5 2
M  V30 3 2 7 6
M  V30 4 1 11 10
M  V30 5 2 12 9
M  V30 6 1 13 7
M  V30 7 1 15 9
M  V30 8 1 17 1
M  V30 9 1 17 9
M  V30 10 1 18 10
M  V30 11 1 19 2
M  V30 12 2 19 15
M  V30 13 1 20 11
M  V30 14 1 22 8
M  V30 15 1 22 13
M  V30 16 1 23 5
M  V30 17 1 24 3
M  V30 18 1 24 18
M  V30 19 1 26 8
M  V30 20 1 26 10
M  V30 21 1 26 16
M  V30 22 1 27 5
M  V30 23 1 28 3
M  V30 24 1 28 4
M  V30 25 1 29 2
M  V30 26 1 29 12
M  V30 27 2 29 14
M  V30 28 1 30 4
M  V30 29 1 30 12
M  V30 30 1 31 8
M  V30 31 1 31 25
M  V30 32 1 32 6
M  V30 33 1 33 22
M  V30 34 2 33 32
M  V30 35 2 34 21
M  V30 36 1 34 23
M  V30 37 1 35 14
M  V30 38 2 35 23
M  V30 39 1 36 34
M  V30 40 1 37 1
M  V30 41 1 38 1
M  V30 42 1 39 3
M  V30 43 1 40 3
M  V30 44 1 41 6
M  V30 45 1 42 7
M  V30 46 1 8 43 CFG=3
M  V30 47 1 44 11
M  V30 48 1 45 11
M  V30 49 1 46 13
M  V30 50 1 47 13
M  V30 51 1 48 14
M  V30 52 1 49 15
M  V30 53 1 50 16
M  V30 54 1 51 16
M  V30 55 1 52 16
M  V30 56 1 53 17
M  V30 57 1 54 17
M  V30 58 1 55 18
M  V30 59 1 56 18
M  V30 60 1 57 20
M  V30 61 1 22 58 CFG=1
M  V30 62 1 59 24
M  V30 63 1 60 24
M  V30 64 1 61 25
M  V30 65 1 62 25
M  V30 66 1 26 63 CFG=1
M  V30 67 1 64 28
M  V30 68 1 65 28
M  V30 69 1 66 30
M  V30 70 1 67 30
M  V30 71 1 68 31
M  V30 72 1 69 31
M  V30 73 1 70 32
M  V30 74 1 71 33
M  V30 75 1 72 35
M  V30 76 1 73 36
M  V30 77 1 74 36
M  V30 78 1 75 36
M  V30 79 1 76 25
M  V30 80 1 4 77 CFG=1
M  V30 81 1 10 78 CFG=3
M  V30 END BOND
M  V30 END CTAB
M  END
>  <i_epik_Tot_Q>  (1) 
2

>  <i_epik_Tot_abs_Q>  (1) 
4

>  <i_i_glide_confnum>  (1) 
28

>  <i_i_glide_lignum>  (1) 
154

>  <i_i_glide_posenum>  (1) 
215

>  <i_i_glide_rotatable_bonds>  (1) 
12

>  <i_lp_mmshare_version>  (1) 
72125

>  <i_m_source_file_index>  (1) 
77

>  <i_f3d_flags>  (1) 
0

>  <num_sample>  (1) 
100

>  <b_lp_Chiralities_Consistent>  (1) 
1

>  <r_epik_Charging_Adjusted_Penalty>  (1) 
2.7385366295040585

>  <r_epik_Ionization_Penalty>  (1) 
1.4403839023663505

>  <r_epik_Ionization_Penalty_Charging>  (1) 
1.4088334024277234

>  <r_epik_Ionization_Penalty_Neutral>  (1) 
0.03155049993862722

>  <r_epik_State_Penalty>  (1) 
1.3297032270763354

>  <r_glide_ring_energy>  (1) 
0.68305203791256597

>  <r_i_docking_score>  (1) 
-4.783895063295148

>  <r_i_glide_ecoul>  (1) 
-8.3950971352434482

>  <r_i_glide_eff_state_penalty>  (1) 
1.3297032270763354

>  <r_i_glide_einternal>  (1) 
8.0580317580397463

>  <r_i_glide_emodel>  (1) 
-36.961450557320497

>  <r_i_glide_emodel_strain>  (1) 
4.0645731097749689

>  <r_i_glide_energy>  (1) 
-27.445405532030492

>  <r_i_glide_erotb>  (1) 
0.66625950385389887

>  <r_i_glide_esite>  (1) 
-0.10115954534821608

>  <r_i_glide_evdw>  (1) 
-19.050308396787045

>  <r_i_glide_gscore>  (1) 
-6.1135982903714838

>  <r_i_glide_gscore_strain>  (1) 
0.016143277443742221

>  <r_i_glide_hbond>  (1) 
-0.29604323534366178

>  <r_i_glide_ligand_efficiency>  (1) 
-0.13288597398042079

>  <r_i_glide_ligand_efficiency_ln>  (1) 
-1.0437166569025962

>  <r_i_glide_ligand_efficiency_sa>  (1) 
-0.43877981848185382

>  <r_i_glide_lipo>  (1) 
-2.9386661584077713

>  <r_i_glide_metal>  (1) 
-0

>  <r_i_glide_rewards>  (1) 
-1.2483521424436059

>  <r_lp_Energy>  (1) 
79.955849000000001

>  <r_lp_tautomer_probability>  (1) 
0.99995000000000001

>  <s_epik_Chemistry_Notes>  (1) 
This compound contains an acetal/aminal-like group ( X-CH(R)-Y where X, Y are N, S, or O) that may be acid/base labile, releasing an aldehyde.

>  <s_epik_cmdline>  (1) 
J2VwaWtfcHl0aG9uJywgJy1waHQnLCAnMS4wJywgJy1waCcsICc3LjQnLCAnLXRuJywgJzgnLCAnLW1hJywgJzUwMCcsICctaW1hZScsICc8aW5maWxlLm1hZT4nLCAnLW9tYWUnLCAnPG91dGZpbGUubWFlPic=

>  <s_epik_input>  (1) 
Tz1DKFtDSDNdKWMoYzFbT0hdKVtjSF1bY0hdYyhjMTIpYzNjKFtjSF1uMilbQ0gyXVtDSDJdTihbQ0gyXTMpW0NIMl1bQ0gyXVtDSDJdW0NIMl1OKFtDSDJdW09IXSlbQ0BIXShbQ0gzXSlbQ0BASF0oW0NIMl1bTkgyXSlbQ0BIXTRbQ0gyXVtDSF09W0NIXVtDSF09W0NIXTQ=

>  <s_glide_docking_method>  (1) 
confgen

>  <s_i_glide_gridfile>  (1) 
gpcr_drd2_6luq_protein_autoprepared_prepared

>  <s_lp_Force_Field>  (1) 
S-OPLS

>  <s_lp_Variant>  (1) 
DiffSBDD_76_num_sample_100-3

>  <s_m_source_file>  (1) 
generated__ligand_DiffSBDD_2026-05-06_prepared.sdf

>  <GenAI_Model>  (1) 
DiffSBDD

>  <Protein>  (1) 
generic_title2

$$$$
DiffSBDD_88_num_sample_100
     RDKit          3D

  0  0  0  0  0  0  0  0  0  0999 V3000
M  V30 BEGIN CTAB
M  V30 COUNTS 57 61 0 0 1
M  V30 BEGIN ATOM
M  V30 1 S 4.997707 -1.007419 -17.551269 0
M  V30 2 O 8.064712 1.404499 -13.630988 0
M  V30 3 C 7.544520 1.836680 -15.922567 0
M  V30 4 O 11.562667 7.880649 -6.738976 0
M  V30 5 F 9.436021 6.569294 -5.963235 0
M  V30 6 C 6.144200 0.400331 -17.535882 0 CFG=1
M  V30 7 C 10.201626 6.569301 -11.676027 0
M  V30 8 C 10.730659 7.769285 -10.003485 0
M  V30 9 C 9.434839 5.672821 -9.468334 0
M  V30 10 C 7.056925 0.467924 -16.333615 0 CFG=1
M  V30 11 C 7.311223 2.269117 -14.463633 0 CFG=2
M  V30 12 C 6.305958 -2.183508 -17.891667 0
M  V30 13 N 11.410233 6.969301 -11.891627 0
M  V30 14 C 7.592026 4.104272 -12.630978 0 CFG=1
M  V30 15 O 6.096391 -3.374619 -18.110742 0
M  V30 16 N 9.406492 5.814491 -12.547171 0
M  V30 17 C 9.419139 6.921763 -7.244841 0 CFG=2
M  V30 18 C 7.707894 -1.595335 -17.893210 0
M  V30 19 C 6.765755 4.772537 -14.935087 0
M  V30 20 C 9.562840 6.918490 -10.357818 0 CFG=2
M  V30 21 C 9.382685 5.678840 -8.118845 0
M  V30 22 C 10.585635 8.630274 -8.788543 0
M  V30 23 C 7.971457 5.575035 -12.339478 0 CFG=1
M  V30 24 O 8.110919 2.586182 -16.719655 0
M  V30 25 C 6.234945 3.769297 -11.979996 0
M  V30 26 C 10.617781 7.812261 -7.520178 0
M  V30 27 C 7.645968 3.764773 -14.150184 0 CFG=2
M  V30 28 C 7.133523 6.563596 -13.173344 0
M  V30 29 C 7.561764 -0.104193 -17.657798 0 CFG=1
M  V30 30 N 11.762962 7.759929 -10.719295 0
M  V30 31 C 7.175661 6.227394 -14.670588 0
M  V30 32 H 7.936788 1.653482 -12.728124 0
M  V30 33 H 5.822843 1.295112 -18.065780 0
M  V30 34 H 9.389933 4.723976 -9.983821 0
M  V30 35 H 6.845804 -0.231462 -15.526039 0
M  V30 36 H 6.256861 2.091064 -14.249232 0
M  V30 37 H 8.334361 3.491487 -12.117746 0
M  V30 38 H 9.759531 5.502387 -13.440789 0
M  V30 39 H 8.506485 7.494996 -7.391832 0
M  V30 40 H 8.322500 -2.043636 -17.111340 0
M  V30 41 H 8.181821 -1.774643 -18.858478 0
M  V30 42 H 6.823586 4.599125 -16.008121 0
M  V30 43 H 5.717621 4.637990 -14.673980 0
M  V30 44 H 8.655482 7.504169 -10.495111 0
M  V30 45 H 9.291797 4.739698 -7.597630 0
M  V30 46 H 11.383649 9.372212 -8.768182 0
M  V30 47 H 9.634482 9.160563 -8.843728 0
M  V30 48 H 7.686148 5.746814 -11.305798 0
M  V30 49 H 5.410484 4.332504 -12.415076 0
M  V30 50 H 5.995014 2.712201 -12.078229 0
M  V30 51 H 6.247010 3.987817 -10.911334 0
M  V30 52 H 8.673693 3.929049 -14.473713 0
M  V30 53 H 7.477146 7.585303 -13.006935 0
M  V30 54 H 6.097976 6.542924 -12.832884 0
M  V30 55 H 8.248206 0.507553 -18.241283 0
M  V30 56 H 8.180028 6.395299 -15.059363 0
M  V30 57 H 6.518940 6.902744 -15.219051 0
M  V30 END ATOM
M  V30 BEGIN BOND
M  V30 1 1 6 1
M  V30 2 1 10 3
M  V30 3 1 10 6
M  V30 4 1 11 2
M  V30 5 1 11 3
M  V30 6 1 12 1
M  V30 7 2 13 7
M  V30 8 2 15 12
M  V30 9 1 16 7
M  V30 10 1 17 5
M  V30 11 1 18 12
M  V30 12 1 20 7
M  V30 13 1 20 8
M  V30 14 1 20 9
M  V30 15 2 21 9
M  V30 16 1 21 17
M  V30 17 1 22 8
M  V30 18 1 23 14
M  V30 19 1 23 16
M  V30 20 2 24 3
M  V30 21 1 25 14
M  V30 22 2 26 4
M  V30 23 1 26 17
M  V30 24 1 26 22
M  V30 25 1 27 11
M  V30 26 1 27 14
M  V30 27 1 27 19
M  V30 28 1 28 23
M  V30 29 1 29 6
M  V30 30 1 29 10
M  V30 31 1 29 18
M  V30 32 2 30 8
M  V30 33 1 30 13
M  V30 34 1 31 19
M  V30 35 1 31 28
M  V30 36 1 32 2
M  V30 37 1 6 33 CFG=3
M  V30 38 1 34 9
M  V30 39 1 10 35 CFG=1
M  V30 40 1 11 36 CFG=1
M  V30 41 1 14 37 CFG=1
M  V30 42 1 38 16
M  V30 43 1 17 39 CFG=1
M  V30 44 1 40 18
M  V30 45 1 41 18
M  V30 46 1 42 19
M  V30 47 1 43 19
M  V30 48 1 20 44 CFG=3
M  V30 49 1 45 21
M  V30 50 1 46 22
M  V30 51 1 47 22
M  V30 52 1 23 48 CFG=1
M  V30 53 1 49 25
M  V30 54 1 50 25
M  V30 55 1 51 25
M  V30 56 1 27 52 CFG=3
M  V30 57 1 53 28
M  V30 58 1 54 28
M  V30 59 1 29 55 CFG=3
M  V30 60 1 56 31
M  V30 61 1 57 31
M  V30 END BOND
M  V30 END CTAB
M  END
>  <i_epik_Tot_Q>  (1) 
0

>  <i_epik_Tot_abs_Q>  (1) 
0

>  <i_i_glide_confnum>  (1) 
5

>  <i_i_glide_lignum>  (1) 
178

>  <i_i_glide_posenum>  (1) 
338

>  <i_i_glide_rotatable_bonds>  (1) 
6

>  <i_lp_mmshare_version>  (1) 
72125

>  <i_m_source_file_index>  (1) 
89

>  <i_f3d_flags>  (1) 
0

>  <num_sample>  (1) 
100

>  <b_lp_Chiralities_Consistent>  (1) 
1

>  <r_epik_Charging_Adjusted_Penalty>  (1) 
0

>  <r_epik_Ionization_Penalty>  (1) 
0.0051441323120346551

>  <r_epik_Ionization_Penalty_Charging>  (1) 
0

>  <r_epik_Ionization_Penalty_Neutral>  (1) 
0.0051441323120346551

>  <r_epik_State_Penalty>  (1) 
-0

>  <r_glide_ring_energy>  (1) 
1.1418401425494451

>  <r_i_docking_score>  (1) 
-4.7825623424076706

>  <r_i_glide_ecoul>  (1) 
-4.8157080032514559

>  <r_i_glide_eff_state_penalty>  (1) 
-0

>  <r_i_glide_einternal>  (1) 
11.513215159648308

>  <r_i_glide_emodel>  (1) 
-55.685837842983858

>  <r_i_glide_emodel_strain>  (1) 
0.18766670553599596

>  <r_i_glide_energy>  (1) 
-46.532192832885741

>  <r_i_glide_erotb>  (1) 
0.49992101663368649

>  <r_i_glide_esite>  (1) 
-0.028038809422066404

>  <r_i_glide_evdw>  (1) 
-41.716484829634283

>  <r_i_glide_gscore>  (1) 
-4.7825623424076706

>  <r_i_glide_gscore_strain>  (1) 
0

>  <r_i_glide_hbond>  (1) 
0

>  <r_i_glide_ligand_efficiency>  (1) 
-0.15427620459379582

>  <r_i_glide_ligand_efficiency_ln>  (1) 
-1.0786143761465814

>  <r_i_glide_ligand_efficiency_sa>  (1) 
-0.48464028423532646

>  <r_i_glide_lipo>  (1) 
-1.1899303443982583

>  <r_i_glide_metal>  (1) 
-0

>  <r_i_glide_rewards>  (1) 
-1.2563337632515996

>  <r_lp_Energy>  (1) 
20.470316

>  <r_lp_tautomer_probability>  (1) 
1

>  <s_epik_Chemistry_Notes>  (1) 
This compound has an imine and may undergo hydrolysis.

>  <s_epik_cmdline>  (1) 
J2VwaWtfcHl0aG9uJywgJy1waHQnLCAnMS4wJywgJy1waCcsICc3LjQnLCAnLXRuJywgJzgnLCAnLW1hJywgJzUwMCcsICctaW1hZScsICc8aW5maWxlLm1hZT4nLCAnLW9tYWUnLCAnPG91dGZpbGUubWFlPic=

>  <s_epik_input>  (1) 
UzFDKD1PKVtDSDJdW0NAQEhdKFtDQEBIXTEyKVtDQEhdMkMoPU8pW0NAQEhdKFtPSF0pW0NASF0zW0NIMl1bQ0gyXVtDSDJdW0NAQEhdKFtDQEhdM1tDSDNdKVtOSF1DKD1OTjQpW0NASF0oQz00NSlbQ0hdPVtDSF1bQ0BASF0oRilDKD1PKVtDSDJdNQ==

>  <s_glide_docking_method>  (1) 
confgen

>  <s_i_glide_gridfile>  (1) 
gpcr_drd2_6luq_protein_autoprepared_prepared

>  <s_lp_Force_Field>  (1) 
S-OPLS

>  <s_lp_Variant>  (1) 
DiffSBDD_88_num_sample_100-1

>  <s_m_source_file>  (1) 
generated__ligand_DiffSBDD_2026-05-06_prepared.sdf

>  <GenAI_Model>  (1) 
DiffSBDD

>  <Protein>  (1) 
generic_title2

$$$$
DiffSBDD_58_num_sample_100
     RDKit          3D

  0  0  0  0  0  0  0  0  0  0999 V3000
M  V30 BEGIN CTAB
M  V30 COUNTS 48 50 0 0 1
M  V30 BEGIN ATOM
M  V30 1 C 8.416779 7.099831 -11.491725 0
M  V30 2 C 7.233854 2.339919 -13.944685 0
M  V30 3 C 9.757509 7.192042 -8.616876 0
M  V30 4 C 6.260283 6.916978 -12.771500 0
M  V30 5 C 7.778238 6.635451 -12.817590 0 CFG=2
M  V30 6 C 10.525243 7.843760 -9.784959 0 CFG=1
M  V30 7 C 7.834803 0.850977 -15.783632 0
M  V30 8 C 12.012071 7.818071 -9.379188 0
M  V30 9 C 12.031437 7.650960 -7.847745 0 CFG=1
M  V30 10 N 7.994387 -0.436282 -16.291765 0
M  V30 11 O 7.388458 4.738848 -14.263049 0
M  V30 12 C 8.009975 5.143182 -13.125413 0
M  V30 13 C 8.124347 1.967828 -16.593243 0
M  V30 14 O 8.693610 4.421953 -12.395716 0
M  V30 15 C 7.531945 3.461360 -14.754715 0
M  V30 16 O 10.234847 8.260595 -5.701694 0
M  V30 17 C 7.387553 1.037623 -14.459916 0
M  V30 18 S 10.234541 7.050742 -11.409509 0
M  V30 19 C 10.303666 6.900181 -6.106345 0
M  V30 20 C 11.500894 8.896293 -5.678472 0
M  V30 21 C 12.029850 8.998457 -7.113336 0
M  V30 22 C 7.972566 3.270377 -16.079734 0
M  V30 23 C 10.791175 6.800459 -7.560428 0 CFG=1
M  V30 24 H 8.144306 8.137757 -11.304444 0
M  V30 25 H 7.999625 6.494660 -10.691711 0
M  V30 26 H 6.891299 2.480909 -12.929447 0
M  V30 27 H 9.035607 7.901025 -8.207173 0
M  V30 28 H 9.198567 6.305219 -8.910037 0
M  V30 29 H 5.826015 6.941470 -13.771419 0
M  V30 30 H 5.732691 6.154804 -12.196176 0
M  V30 31 H 6.038152 7.870352 -12.291660 0
M  V30 32 H 8.215141 7.220686 -13.626421 0
M  V30 33 H 10.197411 8.881179 -9.857916 0
M  V30 34 H 12.502784 6.969490 -9.852569 0
M  V30 35 H 12.544392 8.708994 -9.715033 0
M  V30 36 H 12.908702 7.117899 -7.491706 0
M  V30 37 H 8.344428 -0.594494 -17.224185 0
M  V30 38 H 7.834797 -1.259303 -15.716522 0
M  V30 39 H 8.465779 1.826011 -17.608503 0
M  V30 40 H 7.163228 0.182737 -13.838594 0
M  V30 41 H 9.318827 6.442840 -6.007423 0
M  V30 42 H 10.970385 6.351109 -5.439353 0
M  V30 43 H 11.386571 9.894529 -5.254256 0
M  V30 44 H 12.188506 8.358005 -5.025375 0
M  V30 45 H 11.434810 9.725560 -7.660668 0
M  V30 46 H 13.053002 9.369580 -7.091808 0
M  V30 47 H 8.197163 4.124007 -16.701553 0
M  V30 48 H 11.040497 5.756524 -7.754374 0
M  V30 END ATOM
M  V30 BEGIN BOND
M  V30 1 1 5 1
M  V30 2 1 5 4
M  V30 3 1 6 3
M  V30 4 1 8 6
M  V30 5 1 9 8
M  V30 6 1 10 7
M  V30 7 1 12 5
M  V30 8 1 12 11
M  V30 9 1 13 7
M  V30 10 2 14 12
M  V30 11 2 15 2
M  V30 12 1 15 11
M  V30 13 1 17 2
M  V30 14 2 17 7
M  V30 15 1 18 1
M  V30 16 1 18 6
M  V30 17 1 19 16
M  V30 18 1 20 16
M  V30 19 1 21 9
M  V30 20 1 21 20
M  V30 21 2 22 13
M  V30 22 1 22 15
M  V30 23 1 23 3
M  V30 24 1 23 9
M  V30 25 1 23 19
M  V30 26 1 24 1
M  V30 27 1 25 1
M  V30 28 1 26 2
M  V30 29 1 27 3
M  V30 30 1 28 3
M  V30 31 1 29 4
M  V30 32 1 30 4
M  V30 33 1 31 4
M  V30 34 1 5 32 CFG=3
M  V30 35 1 6 33 CFG=3
M  V30 36 1 34 8
M  V30 37 1 35 8
M  V30 38 1 9 36 CFG=3
M  V30 39 1 37 10
M  V30 40 1 38 10
M  V30 41 1 39 13
M  V30 42 1 40 17
M  V30 43 1 41 19
M  V30 44 1 42 19
M  V30 45 1 43 20
M  V30 46 1 44 20
M  V30 47 1 45 21
M  V30 48 1 46 21
M  V30 49 1 47 22
M  V30 50 1 23 48 CFG=3
M  V30 END BOND
M  V30 END CTAB
M  END
>  <i_epik_Tot_Q>  (1) 
0

>  <i_epik_Tot_abs_Q>  (1) 
0

>  <i_i_glide_confnum>  (1) 
189

>  <i_i_glide_lignum>  (1) 
116

>  <i_i_glide_posenum>  (1) 
266

>  <i_i_glide_rotatable_bonds>  (1) 
6

>  <i_lp_mmshare_version>  (1) 
72125

>  <i_m_source_file_index>  (1) 
59

>  <i_f3d_flags>  (1) 
0

>  <num_sample>  (1) 
100

>  <b_lp_Chiralities_Consistent>  (1) 
1

>  <r_epik_Charging_Adjusted_Penalty>  (1) 
0.0033808002230057204

>  <r_epik_Ionization_Penalty>  (1) 
0.0033808103155764289

>  <r_epik_Ionization_Penalty_Charging>  (1) 
0

>  <r_epik_Ionization_Penalty_Neutral>  (1) 
0.0033808103155764289

>  <r_epik_State_Penalty>  (1) 
0.0033808002230057204

>  <r_glide_ring_energy>  (1) 
0

>  <r_i_docking_score>  (1) 
-4.7762146041925888

>  <r_i_glide_ecoul>  (1) 
-3.2476234343702055

>  <r_i_glide_eff_state_penalty>  (1) 
0.0033808002230057204

>  <r_i_glide_einternal>  (1) 
3.6885294955447758

>  <r_i_glide_emodel>  (1) 
-41.879442168903047

>  <r_i_glide_emodel_strain>  (1) 
0.42810179148007421

>  <r_i_glide_energy>  (1) 
-33.411862195884503

>  <r_i_glide_erotb>  (1) 
0.83854581213583013

>  <r_i_glide_esite>  (1) 
-0.035424560010240351

>  <r_i_glide_evdw>  (1) 
-30.164238761514298

>  <r_i_glide_gscore>  (1) 
-4.7795954044155948

>  <r_i_glide_gscore_strain>  (1) 
0

>  <r_i_glide_hbond>  (1) 
-0.32000000000000001

>  <r_i_glide_ligand_efficiency>  (1) 
-0.20766150453011256

>  <r_i_glide_ligand_efficiency_ln>  (1) 
-1.1549319996133725

>  <r_i_glide_ligand_efficiency_sa>  (1) 
-0.59056169571948336

>  <r_i_glide_lipo>  (1) 
-2.099108433568059

>  <r_i_glide_metal>  (1) 
-0

>  <r_i_glide_rewards>  (1) 
-1.1682527697418794

>  <r_lp_Energy>  (1) 
27.491351999999999

>  <s_epik_cmdline>  (1) 
J2VwaWtfcHl0aG9uJywgJy1waHQnLCAnMS4wJywgJy1waCcsICc3LjQnLCAnLXRuJywgJzgnLCAnLW1hJywgJzUwMCcsICctaW1hZScsICc8aW5maWxlLm1hZT4nLCAnLW9tYWUnLCAnPG91dGZpbGUubWFlPic=

>  <s_epik_input>  (1) 
W0NIMl0xW0NIMl1PW0NIMl1bQ0BIXShbQ0BIXTEyKVtDSDJdW0NAQEhdKFtDSDJdMilTW0NIMl1bQ0BIXShbQ0gzXSlDKD1PKU9jKFtjSF1bY0hdMylbY0hdW2NIXWMzW05IMl0=

>  <s_glide_docking_method>  (1) 
confgen

>  <s_i_glide_gridfile>  (1) 
gpcr_drd2_6luq_protein_autoprepared_prepared

>  <s_lp_Force_Field>  (1) 
S-OPLS

>  <s_lp_Variant>  (1) 
DiffSBDD_58_num_sample_100-1

>  <s_m_source_file>  (1) 
generated__ligand_DiffSBDD_2026-05-06_prepared.sdf

>  <GenAI_Model>  (1) 
DiffSBDD

>  <Protein>  (1) 
generic_title2

$$$$
DiffSBDD_81_num_sample_100
     RDKit          3D

  0  0  0  0  0  0  0  0  0  0999 V3000
M  V30 BEGIN CTAB
M  V30 COUNTS 65 67 0 0 1
M  V30 BEGIN ATOM
M  V30 1 C 7.014781 5.129622 -13.971182 0 CFG=1
M  V30 2 C 6.256542 0.404169 -14.725306 0 CFG=1
M  V30 3 C 11.322788 8.549084 -5.544969 0
M  V30 4 C 9.159256 6.175682 -11.728003 0 CFG=1
M  V30 5 O 6.528693 2.333363 -12.691960 0
M  V30 6 O 8.788112 3.684865 -16.647486 0
M  V30 7 C 9.061628 5.721926 -9.281256 0
M  V30 8 N 9.585782 6.455112 -10.312673 0
M  V30 9 C 7.409422 1.417554 -14.734308 0
M  V30 10 C 7.271251 2.498214 -13.659817 0
M  V30 11 C 6.097049 -0.980026 -18.406214 0
M  V30 12 S 10.760809 6.929552 -5.536143 0
M  V30 13 C 6.031164 0.038148 -17.262653 0
M  V30 14 C 10.318290 8.584147 -9.167214 0
M  V30 15 C 7.865109 6.887123 -12.249916 0 CFG=2
M  V30 16 C 10.317883 6.987434 -7.215122 0
M  V30 17 C 10.672808 7.439407 -10.115144 0
M  V30 18 O 8.106182 4.967594 -9.438483 0
M  V30 19 C 8.000534 4.524371 -16.161684 0
M  V30 20 N 7.713745 4.462591 -14.850651 0
M  V30 21 C 8.057263 3.747169 -13.823599 0 CFG=1
M  V30 22 C 10.352959 6.239841 -12.713441 0
M  V30 23 O 6.758767 6.451918 -11.491671 0
M  V30 24 C 9.747531 5.777191 -7.889720 0
M  V30 25 O 6.305303 7.369271 -13.981648 0
M  V30 26 O 7.473304 5.414273 -16.858851 0 CHG=-1
M  V30 27 C 7.447955 6.566331 -13.724770 0 CFG=2
M  V30 28 C 11.173776 9.116230 -6.779050 0
M  V30 29 C 6.349709 -0.591124 -15.895531 0
M  V30 30 N 6.234910 -0.294084 -13.433258 0 CHG=1
M  V30 31 C 5.854549 7.473365 -15.324047 0
M  V30 32 C 10.587369 8.221960 -7.749363 0
M  V30 33 H 5.944713 4.933733 -13.910863 0
M  V30 34 H 5.307562 0.932886 -14.797813 0
M  V30 35 H 11.730536 8.989198 -4.647679 0
M  V30 36 H 8.917368 5.114898 -11.729463 0
M  V30 37 H 7.439266 1.900494 -15.705551 0
M  V30 38 H 8.367721 0.914149 -14.608169 0
M  V30 39 H 5.864894 -0.505054 -19.359752 0
M  V30 40 H 7.091856 -1.418624 -18.489395 0
M  V30 41 H 5.384344 -1.790539 -18.254773 0
M  V30 42 H 5.034791 0.479613 -17.236663 0
M  V30 43 H 6.722503 0.852919 -17.480834 0
M  V30 44 H 9.280857 8.894332 -9.302553 0
M  V30 45 H 10.922482 9.445881 -9.452410 0
M  V30 46 H 7.974173 7.966567 -12.132192 0
M  V30 47 H 11.609342 6.969094 -9.819391 0
M  V30 48 H 10.896658 7.955352 -11.041427 0
M  V30 49 H 9.079852 3.809441 -13.468261 0
M  V30 50 H 10.146265 5.731522 -13.653214 0
M  V30 51 H 10.634808 7.255193 -12.979659 0
M  V30 52 H 11.236788 5.767598 -12.291828 0
M  V30 53 H 6.808127 6.869849 -10.619964 0
M  V30 54 H 9.010308 5.368751 -7.198711 0
M  V30 55 H 10.536997 5.027315 -7.931573 0
M  V30 56 H 8.234822 6.853667 -14.416262 0
M  V30 57 H 11.459016 10.126987 -7.026239 0
M  V30 58 H 7.347595 -1.030029 -15.923619 0
M  V30 59 H 5.650107 -1.412358 -15.730365 0
M  V30 60 H 7.161986 -0.628821 -13.222480 0
M  V30 61 H 5.939377 0.350228 -12.709849 0
M  V30 62 H 5.032304 8.186561 -15.368484 0
M  V30 63 H 6.635172 7.835429 -15.990238 0
M  V30 64 H 5.471495 6.525099 -15.699641 0
M  V30 65 H 5.605568 -1.109148 -13.479799 0
M  V30 END ATOM
M  V30 BEGIN BOND
M  V30 1 1 8 4
M  V30 2 1 8 7
M  V30 3 1 9 2
M  V30 4 2 10 5
M  V30 5 1 10 9
M  V30 6 1 12 3
M  V30 7 1 13 11
M  V30 8 1 15 4
M  V30 9 1 16 12
M  V30 10 1 17 8
M  V30 11 1 17 14
M  V30 12 2 18 7
M  V30 13 2 19 6
M  V30 14 1 20 1
M  V30 15 1 20 19
M  V30 16 1 21 1
M  V30 17 1 21 10
M  V30 18 1 21 20
M  V30 19 1 22 4
M  V30 20 1 23 15
M  V30 21 1 24 7
M  V30 22 1 24 16
M  V30 23 1 26 19
M  V30 24 1 27 1
M  V30 25 1 27 15
M  V30 26 1 27 25
M  V30 27 2 28 3
M  V30 28 1 29 2
M  V30 29 1 29 13
M  V30 30 1 30 2
M  V30 31 1 31 25
M  V30 32 1 32 14
M  V30 33 2 32 16
M  V30 34 1 32 28
M  V30 35 1 1 33 CFG=3
M  V30 36 1 2 34 CFG=3
M  V30 37 1 35 3
M  V30 38 1 4 36 CFG=1
M  V30 39 1 37 9
M  V30 40 1 38 9
M  V30 41 1 39 11
M  V30 42 1 40 11
M  V30 43 1 41 11
M  V30 44 1 42 13
M  V30 45 1 43 13
M  V30 46 1 44 14
M  V30 47 1 45 14
M  V30 48 1 15 46 CFG=3
M  V30 49 1 47 17
M  V30 50 1 48 17
M  V30 51 1 21 49 CFG=1
M  V30 52 1 50 22
M  V30 53 1 51 22
M  V30 54 1 52 22
M  V30 55 1 53 23
M  V30 56 1 54 24
M  V30 57 1 55 24
M  V30 58 1 27 56 CFG=3
M  V30 59 1 57 28
M  V30 60 1 58 29
M  V30 61 1 59 29
M  V30 62 1 60 30
M  V30 63 1 61 30
M  V30 64 1 62 31
M  V30 65 1 63 31
M  V30 66 1 64 31
M  V30 67 1 65 30
M  V30 END BOND
M  V30 END CTAB
M  END
>  <i_epik_Tot_Q>  (1) 
0

>  <i_epik_Tot_abs_Q>  (1) 
2

>  <i_i_glide_confnum>  (1) 
1095

>  <i_i_glide_lignum>  (1) 
166

>  <i_i_glide_posenum>  (1) 
231

>  <i_i_glide_rotatable_bonds>  (1) 
12

>  <i_lp_mmshare_version>  (1) 
72125

>  <i_m_source_file_index>  (1) 
82

>  <i_f3d_flags>  (1) 
0

>  <num_sample>  (1) 
100

>  <b_lp_Chiralities_Consistent>  (1) 
1

>  <r_epik_Charging_Adjusted_Penalty>  (1) 
0.020538690311271313

>  <r_epik_Ionization_Penalty>  (1) 
0.011193014289855681

>  <r_epik_Ionization_Penalty_Charging>  (1) 
0.011192617808242357

>  <r_epik_Ionization_Penalty_Neutral>  (1) 
3.9648161332337345e-07

>  <r_epik_State_Penalty>  (1) 
0.0093460725030289557

>  <r_glide_ring_energy>  (1) 
0

>  <r_i_docking_score>  (1) 
-4.7743448781731166

>  <r_i_glide_ecoul>  (1) 
-8.1850093657991128

>  <r_i_glide_eff_state_penalty>  (1) 
0.0093460725030289557

>  <r_i_glide_einternal>  (1) 
17.477579221255947

>  <r_i_glide_emodel>  (1) 
-35.016569065327381

>  <r_i_glide_emodel_strain>  (1) 
11.8788647153726

>  <r_i_glide_energy>  (1) 
-45.530036693998689

>  <r_i_glide_erotb>  (1) 
0.64619886402953775

>  <r_i_glide_esite>  (1) 
-0.24066351163024327

>  <r_i_glide_evdw>  (1) 
-37.345027328199578

>  <r_i_glide_gscore>  (1) 
-4.7836909506761458

>  <r_i_glide_gscore_strain>  (1) 
1.9697161788431501

>  <r_i_glide_hbond>  (1) 
-0.35999999999999999

>  <r_i_glide_ligand_efficiency>  (1) 
-0.14919827744290989

>  <r_i_glide_ligand_efficiency_ln>  (1) 
-1.0691059619490513

>  <r_i_glide_ligand_efficiency_sa>  (1) 
-0.473675005129437

>  <r_i_glide_lipo>  (1) 
-2.1187905481267086

>  <r_i_glide_metal>  (1) 
-0

>  <r_i_glide_rewards>  (1) 
-1.5851491625120349

>  <r_lp_Energy>  (1) 
22.366004999999998

>  <r_lp_tautomer_probability>  (1) 
0.99999996000000102

>  <s_epik_cmdline>  (1) 
J2VwaWtfcHl0aG9uJywgJy1waHQnLCAnMS4wJywgJy1waCcsICc3LjQnLCAnLXRuJywgJzgnLCAnLW1hJywgJzUwMCcsICctaW1hZScsICc8aW5maWxlLm1hZT4nLCAnLW9tYWUnLCAnPG91dGZpbGUubWFlPic=

>  <s_epik_input>  (1) 
W0NIM11bQ0gyXVtDSDJdW0NAQEhdKFtOSDJdKVtDSDJdQyg9TylbQ0BIXTFOKEMoPU8pW09IXSlbQ0BASF0xW0NAQEhdKE9bQ0gzXSlbQ0BASF0oW09IXSlbQ0BASF0oW0NIM10pTihDKD1PKVtDSDJdMilbQ0gyXVtDSDJdYyhjMjMpW2NIXVtjSF1zMw==

>  <s_glide_docking_method>  (1) 
confgen

>  <s_i_glide_gridfile>  (1) 
gpcr_drd2_6luq_protein_autoprepared_prepared

>  <s_lp_Force_Field>  (1) 
S-OPLS

>  <s_lp_Variant>  (1) 
DiffSBDD_81_num_sample_100-1

>  <s_m_source_file>  (1) 
generated__ligand_DiffSBDD_2026-05-06_prepared.sdf

>  <GenAI_Model>  (1) 
DiffSBDD

>  <Protein>  (1) 
generic_title2

$$$$
DiffSBDD_76_num_sample_100
     RDKit          3D

  0  0  0  0  0  0  0  0  0  0999 V3000
M  V30 BEGIN CTAB
M  V30 COUNTS 78 81 0 0 1
M  V30 BEGIN ATOM
M  V30 1 C 7.600818 3.210682 -16.209755 0
M  V30 2 C 9.353134 5.621561 -20.350063 0
M  V30 3 C 8.265743 4.514469 -13.583874 0
M  V30 4 N 7.217391 4.617619 -15.932408 0 CFG=1 CHG=1
M  V30 5 C 9.487767 6.440986 -21.505126 0
M  V30 6 C 11.609132 8.640069 -4.854323 0
M  V30 7 C 11.936222 9.471824 -5.850203 0
M  V30 8 C 10.231087 7.728841 -8.417144 0 CFG=1
M  V30 9 C 9.069476 4.041629 -18.080320 0
M  V30 10 N 9.034815 7.023536 -10.649715 0 CFG=1 CHG=1
M  V30 11 C 9.539263 8.117516 -11.520611 0
M  V30 12 C 8.165645 5.104798 -18.260361 0
M  V30 13 C 12.173026 8.998452 -7.279966 0
M  V30 14 C 7.395236 6.969250 -19.674663 0
M  V30 15 C 10.065499 3.828910 -19.038094 0
M  V30 16 C 9.727812 5.207827 -8.998446 0
M  V30 17 C 8.979058 3.146226 -16.874653 0
M  V30 18 C 8.324721 5.933848 -11.417398 0
M  V30 19 N 10.213646 4.591660 -20.127716 0
M  V30 20 O 8.386076 8.554055 -12.218195 0
M  V30 21 O 9.569700 8.267953 -23.842853 0
M  V30 22 C 11.563609 7.591910 -7.607038 0 CFG=1
M  V30 23 C 8.579200 7.522477 -21.741261 0
M  V30 24 C 9.143930 5.235346 -12.533910 0
M  V30 25 N 8.634850 6.895216 -6.691704 0 CHG=1
M  V30 26 C 9.997299 6.628806 -9.551062 0 CFG=2
M  V30 27 O 10.506333 6.179050 -22.389112 0 CHG=-1
M  V30 28 C 8.046937 5.316734 -14.898908 0
M  V30 29 C 8.294077 5.908850 -19.427518 0
M  V30 30 C 7.067138 5.382099 -17.211013 0
M  V30 31 C 9.082103 8.069092 -7.441509 0
M  V30 32 C 11.434535 7.226593 -5.092015 0
M  V30 33 C 11.434862 6.721880 -6.339740 0
M  V30 34 C 8.720921 8.416329 -22.966235 0
M  V30 35 C 7.533496 7.765595 -20.821000 0
M  V30 36 C 7.723428 9.565942 -23.073534 0
M  V30 37 H 7.567621 2.591169 -15.316007 0
M  V30 38 H 6.863277 2.772421 -16.883757 0
M  V30 39 H 8.775808 3.581808 -13.811205 0
M  V30 40 H 7.306956 4.230213 -13.146418 0
M  V30 41 H 11.484451 9.031790 -3.855134 0
M  V30 42 H 12.070886 10.526951 -5.653018 0
M  V30 43 H 10.365102 8.652016 -8.965162 0
M  V30 44 H 10.332190 7.789240 -12.191565 0
M  V30 45 H 9.898360 8.936521 -10.916961 0
M  V30 46 H 13.254755 8.958957 -7.416991 0
M  V30 47 H 11.834632 9.769281 -7.966573 0
M  V30 48 H 6.593566 7.175374 -18.985832 0
M  V30 49 H 10.774606 3.021728 -18.921015 0
M  V30 50 H 10.448287 4.928071 -8.239012 0
M  V30 51 H 8.727943 5.097385 -8.580067 0
M  V30 52 H 9.834671 4.447797 -9.770801 0
M  V30 53 H 9.222951 2.121084 -17.151115 0
M  V30 54 H 9.772479 3.501996 -16.230455 0
M  V30 55 H 7.890624 5.191767 -10.750655 0
M  V30 56 H 7.434312 6.369362 -11.870673 0
M  V30 57 H 8.425309 9.491942 -12.333013 0
M  V30 58 H 12.235280 7.089088 -8.282270 0
M  V30 59 H 9.799777 5.919371 -13.066891 0
M  V30 60 H 9.811562 4.506332 -12.073967 0
M  V30 61 H 7.609558 6.969302 -6.694346 0
M  V30 62 H 8.897438 6.045171 -7.161493 0
M  V30 63 H 10.950701 6.569303 -10.069020 0
M  V30 64 H 7.555144 6.261437 -14.655736 0
M  V30 65 H 9.011713 5.581863 -15.333575 0
M  V30 66 H 6.107680 5.123018 -17.660827 0
M  V30 67 H 7.025226 6.446285 -16.977814 0
M  V30 68 H 9.413965 8.805562 -6.712981 0
M  V30 69 H 8.238803 8.580162 -7.891855 0
M  V30 70 H 11.311941 6.558270 -4.249739 0
M  V30 71 H 11.317737 5.661220 -6.482662 0
M  V30 72 H 6.836202 8.569549 -20.990421 0
M  V30 73 H 7.699592 10.143535 -22.151348 0
M  V30 74 H 8.031185 10.241247 -23.869827 0
M  V30 75 H 6.729442 9.186973 -23.304679 0
M  V30 76 H 8.988774 6.909843 -5.745549 0
M  V30 77 H 6.289675 4.572636 -15.533869 0
M  V30 78 H 8.251917 7.438814 -10.136799 0
M  V30 END ATOM
M  V30 BEGIN BOND
M  V30 1 1 4 1
M  V30 2 2 5 2
M  V30 3 2 7 6
M  V30 4 1 11 10
M  V30 5 2 12 9
M  V30 6 1 13 7
M  V30 7 1 15 9
M  V30 8 1 17 1
M  V30 9 1 17 9
M  V30 10 1 18 10
M  V30 11 1 19 2
M  V30 12 2 19 15
M  V30 13 1 20 11
M  V30 14 1 22 8
M  V30 15 1 22 13
M  V30 16 1 23 5
M  V30 17 1 24 3
M  V30 18 1 24 18
M  V30 19 1 26 8
M  V30 20 1 26 10
M  V30 21 1 26 16
M  V30 22 1 27 5
M  V30 23 1 28 3
M  V30 24 1 28 4
M  V30 25 1 29 2
M  V30 26 1 29 12
M  V30 27 2 29 14
M  V30 28 1 30 4
M  V30 29 1 30 12
M  V30 30 1 31 8
M  V30 31 1 31 25
M  V30 32 1 32 6
M  V30 33 1 33 22
M  V30 34 2 33 32
M  V30 35 2 34 21
M  V30 36 1 34 23
M  V30 37 1 35 14
M  V30 38 2 35 23
M  V30 39 1 36 34
M  V30 40 1 37 1
M  V30 41 1 38 1
M  V30 42 1 39 3
M  V30 43 1 40 3
M  V30 44 1 41 6
M  V30 45 1 42 7
M  V30 46 1 8 43 CFG=3
M  V30 47 1 44 11
M  V30 48 1 45 11
M  V30 49 1 46 13
M  V30 50 1 47 13
M  V30 51 1 48 14
M  V30 52 1 49 15
M  V30 53 1 50 16
M  V30 54 1 51 16
M  V30 55 1 52 16
M  V30 56 1 53 17
M  V30 57 1 54 17
M  V30 58 1 55 18
M  V30 59 1 56 18
M  V30 60 1 57 20
M  V30 61 1 22 58 CFG=3
M  V30 62 1 59 24
M  V30 63 1 60 24
M  V30 64 1 61 25
M  V30 65 1 62 25
M  V30 66 1 26 63 CFG=3
M  V30 67 1 64 28
M  V30 68 1 65 28
M  V30 69 1 66 30
M  V30 70 1 67 30
M  V30 71 1 68 31
M  V30 72 1 69 31
M  V30 73 1 70 32
M  V30 74 1 71 33
M  V30 75 1 72 35
M  V30 76 1 73 36
M  V30 77 1 74 36
M  V30 78 1 75 36
M  V30 79 1 76 25
M  V30 80 1 4 77 CFG=1
M  V30 81 1 10 78 CFG=1
M  V30 END BOND
M  V30 END CTAB
M  END
>  <i_epik_Tot_Q>  (1) 
2

>  <i_epik_Tot_abs_Q>  (1) 
4

>  <i_i_glide_confnum>  (1) 
1904

>  <i_i_glide_lignum>  (1) 
154

>  <i_i_glide_posenum>  (1) 
240

>  <i_i_glide_rotatable_bonds>  (1) 
12

>  <i_lp_mmshare_version>  (1) 
72125

>  <i_m_source_file_index>  (1) 
77

>  <i_f3d_flags>  (1) 
0

>  <num_sample>  (1) 
100

>  <b_lp_Chiralities_Consistent>  (1) 
1

>  <r_epik_Charging_Adjusted_Penalty>  (1) 
2.7385366295040585

>  <r_epik_Ionization_Penalty>  (1) 
1.4403839023663505

>  <r_epik_Ionization_Penalty_Charging>  (1) 
1.4088334024277234

>  <r_epik_Ionization_Penalty_Neutral>  (1) 
0.03155049993862722

>  <r_epik_State_Penalty>  (1) 
1.3297032270763354

>  <r_glide_ring_energy>  (1) 
0.68305203791256597

>  <r_i_docking_score>  (1) 
-4.7733444739696544

>  <r_i_glide_ecoul>  (1) 
-11.059138688331908

>  <r_i_glide_eff_state_penalty>  (1) 
1.3297032270763354

>  <r_i_glide_einternal>  (1) 
19.376322688818789

>  <r_i_glide_emodel>  (1) 
-38.596510857803011

>  <r_i_glide_emodel_strain>  (1) 
3.912431105134786

>  <r_i_glide_energy>  (1) 
-34.617859254759729

>  <r_i_glide_erotb>  (1) 
0.66625950385389887

>  <r_i_glide_esite>  (1) 
-0.26529397892521617

>  <r_i_glide_evdw>  (1) 
-23.558720566427819

>  <r_i_glide_gscore>  (1) 
-6.1030477010459894

>  <r_i_glide_gscore_strain>  (1) 
0

>  <r_i_glide_hbond>  (1) 
-0.40000000000000002

>  <r_i_glide_ligand_efficiency>  (1) 
-0.13259290205471264

>  <r_i_glide_ligand_efficiency_ln>  (1) 
-1.0414148033557562

>  <r_i_glide_ligand_efficiency_sa>  (1) 
-0.43781211630447203

>  <r_i_glide_lipo>  (1) 
-2.4641802349680799

>  <r_i_glide_metal>  (1) 
-0

>  <r_i_glide_rewards>  (1) 
-0.80302615943541433

>  <r_lp_Energy>  (1) 
79.955849000000001

>  <r_lp_tautomer_probability>  (1) 
0.99995000000000001

>  <s_epik_Chemistry_Notes>  (1) 
This compound contains an acetal/aminal-like group ( X-CH(R)-Y where X, Y are N, S, or O) that may be acid/base labile, releasing an aldehyde.

>  <s_epik_cmdline>  (1) 
J2VwaWtfcHl0aG9uJywgJy1waHQnLCAnMS4wJywgJy1waCcsICc3LjQnLCAnLXRuJywgJzgnLCAnLW1hJywgJzUwMCcsICctaW1hZScsICc8aW5maWxlLm1hZT4nLCAnLW9tYWUnLCAnPG91dGZpbGUubWFlPic=

>  <s_epik_input>  (1) 
Tz1DKFtDSDNdKWMoYzFbT0hdKVtjSF1bY0hdYyhjMTIpYzNjKFtjSF1uMilbQ0gyXVtDSDJdTihbQ0gyXTMpW0NIMl1bQ0gyXVtDSDJdW0NIMl1OKFtDSDJdW09IXSlbQ0BIXShbQ0gzXSlbQ0BASF0oW0NIMl1bTkgyXSlbQ0BIXTRbQ0gyXVtDSF09W0NIXVtDSF09W0NIXTQ=

>  <s_glide_docking_method>  (1) 
confgen

>  <s_i_glide_gridfile>  (1) 
gpcr_drd2_6luq_protein_autoprepared_prepared

>  <s_lp_Force_Field>  (1) 
S-OPLS

>  <s_lp_Variant>  (1) 
DiffSBDD_76_num_sample_100-3

>  <s_m_source_file>  (1) 
generated__ligand_DiffSBDD_2026-05-06_prepared.sdf

>  <GenAI_Model>  (1) 
DiffSBDD

>  <Protein>  (1) 
generic_title2

$$$$
DiffSBDD_59_num_sample_100
     RDKit          3D

  0  0  0  0  0  0  0  0  0  0999 V3000
M  V30 BEGIN CTAB
M  V30 COUNTS 74 77 0 0 1
M  V30 BEGIN ATOM
M  V30 1 C 5.663766 3.452576 -13.107446 0
M  V30 2 N 7.137246 0.146996 -18.420092 0 CFG=2 CHG=1
M  V30 3 C 8.461197 0.844978 -18.396442 0
M  V30 4 C 6.908410 -0.930731 -17.372385 0 CFG=1
M  V30 5 C 7.942002 5.885241 -13.259775 0
M  V30 6 C 7.182277 3.408854 -13.353846 0 CFG=2
M  V30 7 C 12.449606 9.250765 -4.743308 0
M  V30 8 C 11.718437 8.725847 -7.745597 0
M  V30 9 C 8.622957 4.346535 -11.490523 0
M  V30 10 C 11.039311 8.062650 -6.701174 0
M  V30 11 O 8.234829 0.716563 -14.430967 0
M  V30 12 O 11.057595 9.568803 -4.816615 0
M  V30 13 C 9.973126 7.217756 -7.045537 0
M  V30 14 C 9.300908 5.379690 -10.839646 0
M  V30 15 C 8.374452 2.322146 -18.804598 0
M  V30 16 C 7.933400 4.578393 -12.692915 0
M  V30 17 C 10.363402 7.789013 -9.374485 0
M  V30 18 C 8.634652 6.927809 -12.596995 0
M  V30 19 N 11.382114 8.615712 -9.053378 0
M  V30 20 C 6.662331 -0.143502 -19.803274 0
M  V30 21 N 6.496038 1.059072 -15.828047 0
M  V30 22 C 7.227437 6.178426 -14.570053 0
M  V30 23 C 6.130353 -2.189526 -17.823901 0
M  V30 24 O 8.205153 -1.431153 -17.091611 0
M  V30 25 N 10.018087 7.724498 -10.745115 0
M  V30 26 C 7.466494 1.483928 -15.005630 0
M  V30 27 C 9.309043 6.679381 -11.380698 0
M  V30 28 C 8.216256 2.573740 -20.289710 0
M  V30 29 C 9.630643 7.072199 -8.396387 0
M  V30 30 C 7.586091 3.006685 -14.795114 0
M  V30 31 C 5.034496 1.847263 -19.836107 0
M  V30 32 C 11.434895 8.254843 -5.263593 0 CFG=2
M  V30 33 C 6.164552 1.102177 -20.565019 0 CFG=1
M  V30 34 C 6.247012 -0.361495 -16.085322 0
M  V30 35 C 7.249749 2.043199 -21.058616 0
M  V30 36 H 5.459526 3.518246 -12.038598 0
M  V30 37 H 5.164356 4.294752 -13.577891 0
M  V30 38 H 5.190161 2.546057 -13.486061 0
M  V30 39 H 8.875901 0.855483 -17.388133 0
M  V30 40 H 9.187161 0.309272 -19.011309 0
M  V30 41 H 7.494608 2.559835 -12.742554 0
M  V30 42 H 12.826369 9.136373 -3.728773 0
M  V30 43 H 13.088348 9.789454 -5.438463 0
M  V30 44 H 12.551503 9.369263 -7.526112 0
M  V30 45 H 8.634828 3.369307 -11.065810 0
M  V30 46 H 9.418085 6.693504 -6.280736 0
M  V30 47 H 9.834805 5.163545 -9.929991 0
M  V30 48 H 7.587304 2.838756 -18.254669 0
M  V30 49 H 9.304349 2.808529 -18.508185 0
M  V30 50 H 8.643286 7.919633 -13.022004 0
M  V30 51 H 7.442589 -0.661573 -20.362196 0
M  V30 52 H 5.802930 -0.806969 -19.805664 0
M  V30 53 H 5.884306 1.736016 -16.260316 0
M  V30 54 H 7.161700 7.255098 -14.732548 0
M  V30 55 H 7.790966 5.763856 -15.405562 0
M  V30 56 H 6.210821 5.800802 -14.601422 0
M  V30 57 H 5.092085 -1.964231 -18.069823 0
M  V30 58 H 6.592641 -2.674899 -18.684643 0
M  V30 59 H 6.099111 -2.936019 -17.029027 0
M  V30 60 H 8.162731 -1.939534 -16.282970 0
M  V30 61 H 10.352087 8.471229 -11.332542 0
M  V30 62 H 8.941222 3.236823 -20.740497 0
M  V30 63 H 8.794027 6.451038 -8.672495 0
M  V30 64 H 8.627284 3.279485 -14.972057 0
M  V30 65 H 6.998135 3.546588 -15.536383 0
M  V30 66 H 4.637934 2.659241 -20.446878 0
M  V30 67 H 4.201833 1.177017 -19.620828 0
M  V30 68 H 5.361350 2.278337 -18.890227 0
M  V30 69 H 11.106300 7.443409 -4.616706 0
M  V30 70 H 5.722630 0.717818 -21.486824 0
M  V30 71 H 5.163880 -0.429760 -16.196793 0
M  V30 72 H 6.469170 -0.979417 -15.213714 0
M  V30 73 H 7.221140 2.291566 -22.110630 0
M  V30 74 H 6.490914 0.854930 -18.109203 0
M  V30 END ATOM
M  V30 BEGIN BOND
M  V30 1 1 3 2
M  V30 2 1 4 2
M  V30 3 1 6 1
M  V30 4 2 10 8
M  V30 5 1 12 7
M  V30 6 1 13 10
M  V30 7 2 14 9
M  V30 8 1 15 3
M  V30 9 2 16 5
M  V30 10 1 16 6
M  V30 11 1 16 9
M  V30 12 1 18 5
M  V30 13 1 19 8
M  V30 14 2 19 17
M  V30 15 1 20 2
M  V30 16 1 22 5
M  V30 17 1 23 4
M  V30 18 1 4 24 CFG=1
M  V30 19 1 25 17
M  V30 20 2 26 11
M  V30 21 1 26 21
M  V30 22 1 27 14
M  V30 23 2 27 18
M  V30 24 1 27 25
M  V30 25 1 28 15
M  V30 26 2 29 13
M  V30 27 1 29 17
M  V30 28 1 30 6
M  V30 29 1 30 26
M  V30 30 1 32 7
M  V30 31 1 32 10
M  V30 32 1 32 12
M  V30 33 1 33 20
M  V30 34 1 33 31
M  V30 35 1 34 4
M  V30 36 1 34 21
M  V30 37 2 35 28
M  V30 38 1 35 33
M  V30 39 1 36 1
M  V30 40 1 37 1
M  V30 41 1 38 1
M  V30 42 1 39 3
M  V30 43 1 40 3
M  V30 44 1 6 41 CFG=1
M  V30 45 1 42 7
M  V30 46 1 43 7
M  V30 47 1 44 8
M  V30 48 1 45 9
M  V30 49 1 46 13
M  V30 50 1 47 14
M  V30 51 1 48 15
M  V30 52 1 49 15
M  V30 53 1 50 18
M  V30 54 1 51 20
M  V30 55 1 52 20
M  V30 56 1 53 21
M  V30 57 1 54 22
M  V30 58 1 55 22
M  V30 59 1 56 22
M  V30 60 1 57 23
M  V30 61 1 58 23
M  V30 62 1 59 23
M  V30 63 1 60 24
M  V30 64 1 61 25
M  V30 65 1 62 28
M  V30 66 1 63 29
M  V30 67 1 64 30
M  V30 68 1 65 30
M  V30 69 1 66 31
M  V30 70 1 67 31
M  V30 71 1 68 31
M  V30 72 1 32 69 CFG=1
M  V30 73 1 33 70 CFG=3
M  V30 74 1 71 34
M  V30 75 1 72 34
M  V30 76 1 73 35
M  V30 77 1 2 74 CFG=1
M  V30 END BOND
M  V30 END CTAB
M  END
>  <i_epik_Tot_Q>  (1) 
1

>  <i_epik_Tot_abs_Q>  (1) 
1

>  <i_i_glide_confnum>  (1) 
788

>  <i_i_glide_lignum>  (1) 
118

>  <i_i_glide_posenum>  (1) 
159

>  <i_i_glide_rotatable_bonds>  (1) 
11

>  <i_lp_mmshare_version>  (1) 
72125

>  <i_m_source_file_index>  (1) 
60

>  <i_f3d_flags>  (1) 
0

>  <num_sample>  (1) 
100

>  <b_lp_Chiralities_Consistent>  (1) 
1

>  <r_epik_Charging_Adjusted_Penalty>  (1) 
1.3886415501160498

>  <r_epik_Ionization_Penalty>  (1) 
0.71269190361940904

>  <r_epik_Ionization_Penalty_Charging>  (1) 
0.69432077505802503

>  <r_epik_Ionization_Penalty_Neutral>  (1) 
0.018371128561383968

>  <r_epik_State_Penalty>  (1) 
0.69432077505802492

>  <r_glide_ring_energy>  (1) 
0

>  <r_i_docking_score>  (1) 
-4.7722997710959172

>  <r_i_glide_ecoul>  (1) 
-5.2106987876249402

>  <r_i_glide_eff_state_penalty>  (1) 
0.69432077505802492

>  <r_i_glide_einternal>  (1) 
20.48845182081358

>  <r_i_glide_emodel>  (1) 
-49.327155387395216

>  <r_i_glide_emodel_strain>  (1) 
0.16861999955864349

>  <r_i_glide_energy>  (1) 
-47.312805836391135

>  <r_i_glide_erotb>  (1) 
0.88120926584797454

>  <r_i_glide_esite>  (1) 
-0.075590105896126455

>  <r_i_glide_evdw>  (1) 
-42.102107048766193

>  <r_i_glide_gscore>  (1) 
-5.4666205461539423

>  <r_i_glide_gscore_strain>  (1) 
0

>  <r_i_glide_hbond>  (1) 
-0.32000000000000001

>  <r_i_glide_ligand_efficiency>  (1) 
-0.13635142203131193

>  <r_i_glide_ligand_efficiency_ln>  (1) 
-1.047625715242398

>  <r_i_glide_ligand_efficiency_sa>  (1) 
-0.44601454295293075

>  <r_i_glide_lipo>  (1) 
-2.2240745069202004

>  <r_i_glide_metal>  (1) 
-0

>  <r_i_glide_rewards>  (1) 
-0.84145502860353838

>  <r_lp_Energy>  (1) 
32.050570999999998

>  <r_lp_tautomer_probability>  (1) 
0.99999977220005165

>  <s_epik_cmdline>  (1) 
J2VwaWtfcHl0aG9uJywgJy1waHQnLCAnMS4wJywgJy1waCcsICc3LjQnLCAnLXRuJywgJzgnLCAnLW1hJywgJzUwMCcsICctaW1hZScsICc8aW5maWxlLm1hZT4nLCAnLW9tYWUnLCAnPG91dGZpbGUubWFlPic=

>  <s_epik_input>  (1) 
W0NIMl0xW0NAQEhdKFtDSDNdKVtDSF09W0NIXVtDSDJdW0NIMl1OMVtDQEBdKFtDSDNdKShbT0hdKVtDSDJdW05IXUMoPU8pW0NIMl1bQ0BIXShbQ0gzXSljKGMyW0NIM10pW2NIXVtjSF1jKFtjSF0yKVtOSF1jKFtjSF1bY0hdMyluW2NIXWMzW0NASF00W0NIMl1PNA==

>  <s_glide_docking_method>  (1) 
confgen

>  <s_i_glide_gridfile>  (1) 
gpcr_drd2_6luq_protein_autoprepared_prepared

>  <s_lp_Force_Field>  (1) 
S-OPLS

>  <s_lp_Variant>  (1) 
DiffSBDD_59_num_sample_100-2

>  <s_m_source_file>  (1) 
generated__ligand_DiffSBDD_2026-05-06_prepared.sdf

>  <GenAI_Model>  (1) 
DiffSBDD

>  <Protein>  (1) 
generic_title2

$$$$
DiffSBDD_44_num_sample_100
     RDKit          3D

  0  0  0  0  0  0  0  0  0  0999 V3000
M  V30 BEGIN CTAB
M  V30 COUNTS 56 58 0 0 1
M  V30 BEGIN ATOM
M  V30 1 C 5.587666 4.801453 -19.555147 0
M  V30 2 C 6.250044 5.987938 -18.812254 0 CFG=1
M  V30 3 C 11.148285 7.955913 -9.674295 0
M  V30 4 C 10.942118 7.426041 -6.910559 0
M  V30 5 C 10.145397 6.707185 -7.819970 0
M  V30 6 C 6.980385 6.781946 -13.993007 0
M  V30 7 C 7.222347 6.676648 -19.759753 0
M  V30 8 N 5.321552 7.142067 -18.595658 0 CFG=1 CHG=1
M  V30 9 C 6.955478 6.158070 -12.586594 0
M  V30 10 C 9.219930 6.463527 -11.436708 0
M  V30 11 O 9.747915 7.379618 -12.059890 0
M  V30 12 C 11.834837 8.404439 -7.379464 0
M  V30 13 N 10.847642 7.165852 -5.544372 0
M  V30 14 C 6.654604 7.848903 -20.518822 0
M  V30 15 N 9.390799 6.203601 -10.129341 0
M  V30 16 C 7.251872 5.745158 -15.096321 0
M  V30 17 O 7.651486 4.477069 -17.548400 0
M  V30 18 C 8.062676 4.481150 -10.962205 0
M  V30 19 C 5.283086 7.972036 -19.834838 0
M  V30 20 N 6.709800 6.168820 -16.381014 0
M  V30 21 C 3.986152 6.832993 -18.031923 0
M  V30 22 C 8.275143 5.496840 -12.122177 0 CFG=1
M  V30 23 C 8.610345 5.089758 -9.642828 0
M  V30 24 C 10.234692 6.969082 -9.211762 0
M  V30 25 C 6.941042 5.481273 -17.516110 0
M  V30 26 C 11.940828 8.661441 -8.756789 0
M  V30 27 O 8.385981 6.306833 -19.902374 0
M  V30 28 H 6.338688 4.166664 -20.029162 0
M  V30 29 H 5.034959 4.159440 -18.871115 0
M  V30 30 H 4.902625 5.126702 -20.338579 0
M  V30 31 H 11.258616 8.170286 -10.714420 0
M  V30 32 H 9.460773 5.959806 -7.449967 0
M  V30 33 H 6.008844 7.248000 -14.160808 0
M  V30 34 H 7.714315 7.586699 -14.043128 0
M  V30 35 H 6.154389 5.418521 -12.562923 0
M  V30 36 H 6.655417 6.923468 -11.868118 0
M  V30 37 H 12.447855 8.955799 -6.681883 0
M  V30 38 H 11.500305 7.574563 -4.892666 0
M  V30 39 H 10.309043 6.379382 -5.206415 0
M  V30 40 H 7.272369 8.732657 -20.368631 0
M  V30 41 H 6.575082 7.637518 -21.585530 0
M  V30 42 H 8.323904 5.557801 -15.180582 0
M  V30 43 H 6.783724 4.793326 -14.838473 0
M  V30 44 H 7.023531 4.169740 -10.846670 0
M  V30 45 H 8.635109 3.583497 -11.197817 0
M  V30 46 H 5.039100 9.007987 -19.598665 0
M  V30 47 H 4.508036 7.601302 -20.507737 0
M  V30 48 H 6.118853 6.982767 -16.396133 0
M  V30 49 H 3.434832 6.169304 -18.691488 0
M  V30 50 H 4.063442 6.344600 -17.060291 0
M  V30 51 H 3.402419 7.745255 -17.899213 0
M  V30 52 H 8.787506 5.002384 -12.947090 0
M  V30 53 H 9.228484 4.378638 -9.094688 0
M  V30 54 H 7.797855 5.445035 -9.006590 0
M  V30 55 H 12.634826 9.401535 -9.113150 0
M  V30 56 H 5.790745 7.735824 -17.927738 0
M  V30 END ATOM
M  V30 BEGIN BOND
M  V30 1 1 2 1 CFG=3
M  V30 2 2 5 4
M  V30 3 1 7 2
M  V30 4 1 8 2
M  V30 5 1 9 6
M  V30 6 2 11 10
M  V30 7 1 12 4
M  V30 8 1 13 4
M  V30 9 1 14 7
M  V30 10 1 15 10
M  V30 11 1 16 6
M  V30 12 1 19 8
M  V30 13 1 19 14
M  V30 14 1 20 16
M  V30 15 1 21 8
M  V30 16 1 22 9
M  V30 17 1 22 10
M  V30 18 1 22 18
M  V30 19 1 23 15
M  V30 20 1 23 18
M  V30 21 2 24 3
M  V30 22 1 24 5
M  V30 23 1 24 15
M  V30 24 1 25 2
M  V30 25 2 25 17
M  V30 26 1 25 20
M  V30 27 1 26 3
M  V30 28 2 26 12
M  V30 29 2 27 7
M  V30 30 1 28 1
M  V30 31 1 29 1
M  V30 32 1 30 1
M  V30 33 1 31 3
M  V30 34 1 32 5
M  V30 35 1 33 6
M  V30 36 1 34 6
M  V30 37 1 35 9
M  V30 38 1 36 9
M  V30 39 1 37 12
M  V30 40 1 38 13
M  V30 41 1 39 13
M  V30 42 1 40 14
M  V30 43 1 41 14
M  V30 44 1 42 16
M  V30 45 1 43 16
M  V30 46 1 44 18
M  V30 47 1 45 18
M  V30 48 1 46 19
M  V30 49 1 47 19
M  V30 50 1 48 20
M  V30 51 1 49 21
M  V30 52 1 50 21
M  V30 53 1 51 21
M  V30 54 1 22 52 CFG=3
M  V30 55 1 53 23
M  V30 56 1 54 23
M  V30 57 1 55 26
M  V30 58 1 8 56 CFG=1
M  V30 END BOND
M  V30 END CTAB
M  END
>  <i_epik_Tot_Q>  (1) 
1

>  <i_epik_Tot_abs_Q>  (1) 
1

>  <i_i_glide_confnum>  (1) 
153

>  <i_i_glide_lignum>  (1) 
79

>  <i_i_glide_posenum>  (1) 
264

>  <i_i_glide_rotatable_bonds>  (1) 
7

>  <i_lp_mmshare_version>  (1) 
72125

>  <i_m_source_file_index>  (1) 
45

>  <i_f3d_flags>  (1) 
0

>  <num_sample>  (1) 
100

>  <b_lp_Chiralities_Consistent>  (1) 
1

>  <r_epik_Charging_Adjusted_Penalty>  (1) 
0.87787264938008924

>  <r_epik_Ionization_Penalty>  (1) 
0.44040452980928141

>  <r_epik_Ionization_Penalty_Charging>  (1) 
0.43893632469004462

>  <r_epik_Ionization_Penalty_Neutral>  (1) 
0.0014682051192367804

>  <r_epik_State_Penalty>  (1) 
0.43893632469004457

>  <r_glide_ring_energy>  (1) 
0

>  <r_i_docking_score>  (1) 
-4.7693183284307752

>  <r_i_glide_ecoul>  (1) 
-1.0962642735975989

>  <r_i_glide_eff_state_penalty>  (1) 
0.43893632469004457

>  <r_i_glide_einternal>  (1) 
4.9832230004111864

>  <r_i_glide_emodel>  (1) 
-45.178039486495038

>  <r_i_glide_emodel_strain>  (1) 
0.92517344672306479

>  <r_i_glide_energy>  (1) 
-37.525949446627891

>  <r_i_glide_erotb>  (1) 
0.96983297192060391

>  <r_i_glide_esite>  (1) 
-0.11978773589825782

>  <r_i_glide_evdw>  (1) 
-36.429685173030293

>  <r_i_glide_gscore>  (1) 
-5.2082546531208198

>  <r_i_glide_gscore_strain>  (1) 
0

>  <r_i_glide_hbond>  (1) 
0

>  <r_i_glide_ligand_efficiency>  (1) 
-0.17664141957151019

>  <r_i_glide_ligand_efficiency_ln>  (1) 
-1.1102186785009003

>  <r_i_glide_ligand_efficiency_sa>  (1) 
-0.52992425871453064

>  <r_i_glide_lipo>  (1) 
-2.0444267812884114

>  <r_i_glide_metal>  (1) 
-0

>  <r_i_glide_rewards>  (1) 
-2.0279492081635992

>  <r_lp_Energy>  (1) 
25.411044

>  <r_lp_tautomer_probability>  (1) 
0.99995000000000001

>  <s_epik_cmdline>  (1) 
J2VwaWtfcHl0aG9uJywgJy1waHQnLCAnMS4wJywgJy1waCcsICc3LjQnLCAnLXRuJywgJzgnLCAnLW1hJywgJzUwMCcsICctaW1hZScsICc8aW5maWxlLm1hZT4nLCAnLW9tYWUnLCAnPG91dGZpbGUubWFlPic=

>  <s_epik_input>  (1) 
W0NIM11OMVtDSDJdW0NIMl1DKD1PKVtDQEBdMShbQ0gzXSlDKD1PKVtOSF1bQ0gyXVtDSDJdW0NIMl1bQ0BASF0yW0NIMl1bQ0gyXU4oQzI9TyljKFtjSF1bY0hdW2NIXTMpW2NIXWMzW05IMl0=

>  <s_glide_docking_method>  (1) 
confgen

>  <s_i_glide_gridfile>  (1) 
gpcr_drd2_6luq_protein_autoprepared_prepared

>  <s_lp_Force_Field>  (1) 
S-OPLS

>  <s_lp_Variant>  (1) 
DiffSBDD_44_num_sample_100-4

>  <s_m_source_file>  (1) 
generated__ligand_DiffSBDD_2026-05-06_prepared.sdf

>  <GenAI_Model>  (1) 
DiffSBDD

>  <Protein>  (1) 
generic_title2

$$$$
DiffSBDD_83_num_sample_100
     RDKit          3D

  0  0  0  0  0  0  0  0  0  0999 V3000
M  V30 BEGIN CTAB
M  V30 COUNTS 48 52 0 0 1
M  V30 BEGIN ATOM
M  V30 1 C 9.840111 6.824177 -10.516664 0
M  V30 2 C 6.154821 6.022614 -18.975319 0
M  V30 3 C 4.945202 6.329678 -16.877782 0 CFG=1
M  V30 4 C 6.392750 7.072618 -13.961539 0
M  V30 5 C 6.314667 6.790843 -16.449342 0 CFG=2
M  V30 6 N 6.846956 5.804471 -11.583235 0
M  V30 7 C 4.166331 7.049799 -17.953081 0
M  V30 8 C 10.634844 6.826305 -8.208692 0
M  V30 9 C 6.166378 5.712529 -17.496466 0 CFG=2
M  V30 10 C 6.839430 6.531145 -15.085202 0
M  V30 11 C 11.573161 7.355007 -7.140504 0
M  V30 12 C 8.138571 5.093804 -11.319847 0 CFG=1
M  V30 13 C 8.935450 5.224568 -8.909418 0
M  V30 14 C 7.867099 5.691638 -14.757873 0
M  V30 15 C 10.664230 7.367831 -9.510757 0
M  V30 16 C 5.113437 7.141539 -19.163367 0
M  V30 17 C 8.950319 4.887089 -12.656708 0
M  V30 18 C 9.755608 5.770818 -7.907381 0
M  V30 19 C 8.069403 5.742526 -13.452430 0
M  V30 20 C 10.906019 7.771557 -5.832104 0
M  V30 21 O 10.235124 8.969336 -6.081229 0
M  V30 22 C 7.202721 6.712449 -12.657113 0 CFG=1
M  V30 23 C 8.988337 5.733401 -10.221552 0
M  V30 24 H 9.878686 7.227617 -11.516730 0
M  V30 25 H 7.147202 6.313669 -19.321726 0
M  V30 26 H 5.852478 5.127273 -19.518993 0
M  V30 27 H 4.369703 5.769320 -16.150546 0
M  V30 28 H 5.573091 7.769309 -13.922312 0
M  V30 29 H 6.632088 7.769331 -16.800958 0
M  V30 30 H 6.634889 6.383315 -10.769753 0
M  V30 31 H 3.840915 8.028982 -17.604866 0
M  V30 32 H 3.276704 6.473479 -18.198834 0
M  V30 33 H 6.494403 4.715139 -17.212423 0
M  V30 34 H 12.200320 8.157288 -7.532638 0
M  V30 35 H 12.235072 6.522682 -6.915678 0
M  V30 36 H 7.860650 4.110222 -10.944673 0
M  V30 37 H 8.275611 4.404206 -8.674812 0
M  V30 38 H 8.376943 5.031665 -15.444556 0
M  V30 39 H 11.333119 8.183387 -9.743915 0
M  V30 40 H 5.613388 8.110245 -19.150784 0
M  V30 41 H 4.592263 7.065031 -20.116992 0
M  V30 42 H 9.978513 5.247485 -12.641764 0
M  V30 43 H 8.924672 3.856273 -13.010123 0
M  V30 44 H 9.724268 5.369281 -6.910006 0
M  V30 45 H 11.657969 7.956032 -5.064753 0
M  V30 46 H 10.222512 7.016889 -5.442944 0
M  V30 47 H 9.576027 8.800226 -6.741408 0
M  V30 48 H 7.784148 7.562543 -12.299898 0
M  V30 END ATOM
M  V30 BEGIN BOND
M  V30 1 1 5 3
M  V30 2 1 7 3
M  V30 3 1 9 2
M  V30 4 1 9 3
M  V30 5 1 9 5
M  V30 6 2 10 4
M  V30 7 1 10 5
M  V30 8 1 11 8
M  V30 9 1 12 6
M  V30 10 1 14 10
M  V30 11 2 15 1
M  V30 12 1 15 8
M  V30 13 1 16 2
M  V30 14 1 16 7
M  V30 15 1 17 12
M  V30 16 2 18 8
M  V30 17 1 18 13
M  V30 18 2 19 14
M  V30 19 1 19 17
M  V30 20 1 20 11
M  V30 21 1 21 20
M  V30 22 1 22 4
M  V30 23 1 22 6
M  V30 24 1 22 19
M  V30 25 1 23 1
M  V30 26 1 23 12
M  V30 27 2 23 13
M  V30 28 1 24 1
M  V30 29 1 25 2
M  V30 30 1 26 2
M  V30 31 1 3 27 CFG=1
M  V30 32 1 28 4
M  V30 33 1 5 29 CFG=3
M  V30 34 1 30 6
M  V30 35 1 31 7
M  V30 36 1 32 7
M  V30 37 1 9 33 CFG=3
M  V30 38 1 34 11
M  V30 39 1 35 11
M  V30 40 1 12 36 CFG=1
M  V30 41 1 37 13
M  V30 42 1 38 14
M  V30 43 1 39 15
M  V30 44 1 40 16
M  V30 45 1 41 16
M  V30 46 1 42 17
M  V30 47 1 43 17
M  V30 48 1 44 18
M  V30 49 1 45 20
M  V30 50 1 46 20
M  V30 51 1 47 21
M  V30 52 1 22 48 CFG=1
M  V30 END BOND
M  V30 END CTAB
M  END
>  <i_epik_Tot_Q>  (1) 
0

>  <i_epik_Tot_abs_Q>  (1) 
0

>  <i_i_glide_confnum>  (1) 
141

>  <i_i_glide_lignum>  (1) 
172

>  <i_i_glide_posenum>  (1) 
235

>  <i_i_glide_rotatable_bonds>  (1) 
5

>  <i_lp_mmshare_version>  (1) 
72125

>  <i_m_source_file_index>  (1) 
84

>  <i_f3d_flags>  (1) 
0

>  <num_sample>  (1) 
100

>  <b_lp_Chiralities_Consistent>  (1) 
1

>  <r_epik_Charging_Adjusted_Penalty>  (1) 
0.79484472859609101

>  <r_epik_Ionization_Penalty>  (1) 
0.79484480768617471

>  <r_epik_Ionization_Penalty_Charging>  (1) 
0

>  <r_epik_Ionization_Penalty_Neutral>  (1) 
0.79484480768617471

>  <r_epik_State_Penalty>  (1) 
0.79484472859609101

>  <r_glide_ring_energy>  (1) 
0

>  <r_i_docking_score>  (1) 
-4.7683319163596609

>  <r_i_glide_ecoul>  (1) 
-2.4430512697266593

>  <r_i_glide_eff_state_penalty>  (1) 
0.79484472859609101

>  <r_i_glide_einternal>  (1) 
1.1808966714550793

>  <r_i_glide_emodel>  (1) 
-40.852424348920714

>  <r_i_glide_emodel_strain>  (1) 
0.75067440766261484

>  <r_i_glide_energy>  (1) 
-31.389259242654465

>  <r_i_glide_erotb>  (1) 
0.7823539513187745

>  <r_i_glide_esite>  (1) 
0

>  <r_i_glide_evdw>  (1) 
-28.946207972927805

>  <r_i_glide_gscore>  (1) 
-5.5631766449557523

>  <r_i_glide_gscore_strain>  (1) 
0

>  <r_i_glide_hbond>  (1) 
-0.16

>  <r_i_glide_ligand_efficiency>  (1) 
-0.20731877897215917

>  <r_i_glide_ligand_efficiency_ln>  (1) 
-1.1530258942191089

>  <r_i_glide_ligand_efficiency_sa>  (1) 
-0.58958702982206856

>  <r_i_glide_lipo>  (1) 
-2.1919151702326007

>  <r_i_glide_metal>  (1) 
-0

>  <r_i_glide_rewards>  (1) 
-2.1798473369365357

>  <r_lp_Energy>  (1) 
34.739830999999995

>  <s_epik_cmdline>  (1) 
J2VwaWtfcHl0aG9uJywgJy1waHQnLCAnMS4wJywgJy1waCcsICc3LjQnLCAnLXRuJywgJzgnLCAnLW1hJywgJzUwMCcsICctaW1hZScsICc8aW5maWxlLm1hZT4nLCAnLW9tYWUnLCAnPG91dGZpbGUubWFlPic=

>  <s_epik_input>  (1) 
W09IXVtDSDJdW0NIMl1jMVtjSF1bY0hdYyhbY0hdW2NIXTEpW0NASF0oW0NIMl0yKVtOSF1bQ0BIXShDMjMpW0NIXT1DKFtDSF09MylbQ0BIXTRbQ0BASF0oW0NAQEhdNDUpW0NIMl1bQ0gyXVtDSDJdNQ==

>  <s_glide_docking_method>  (1) 
confgen

>  <s_i_glide_gridfile>  (1) 
gpcr_drd2_6luq_protein_autoprepared_prepared

>  <s_lp_Force_Field>  (1) 
S-OPLS

>  <s_lp_Variant>  (1) 
DiffSBDD_83_num_sample_100-4

>  <s_m_source_file>  (1) 
generated__ligand_DiffSBDD_2026-05-06_prepared.sdf

>  <GenAI_Model>  (1) 
DiffSBDD

>  <Protein>  (1) 
generic_title2

$$$$
DiffSBDD_78_num_sample_100
     RDKit          3D

  0  0  0  0  0  0  0  0  0  0999 V3000
M  V30 BEGIN CTAB
M  V30 COUNTS 75 84 0 0 1
M  V30 BEGIN ATOM
M  V30 1 C 7.635224 5.255280 -11.733137 0
M  V30 2 C 10.052654 8.412293 -9.051176 0 CFG=1
M  V30 3 C 7.356472 4.698463 -14.205819 0
M  V30 4 C 10.422607 7.205507 -11.442134 0
M  V30 5 C 8.461128 5.804013 -7.092955 0
M  V30 6 C 10.173619 8.731730 -6.751391 0 CFG=2
M  V30 7 C 4.999739 -2.328483 -20.186907 0
M  V30 8 O 7.266304 -3.366889 -19.812308 0
M  V30 9 C 5.406869 -2.170395 -18.733730 0 CFG=1
M  V30 10 C 8.134345 1.779692 -17.743787 0 CFG=2
M  V30 11 C 7.686557 0.363269 -17.631826 0
M  V30 12 C 9.214036 7.098829 -7.009881 0 CFG=2
M  V30 13 C 6.454069 -2.208026 -19.831142 0 CFG=2
M  V30 14 C 7.922943 5.687406 -13.181309 0
M  V30 15 C 8.840420 8.382060 -6.369478 0 CFG=1
M  V30 16 C 10.310536 7.270463 -9.955932 0 CFG=1
M  V30 17 C 9.010025 4.885007 -16.257885 0
M  V30 18 C 7.153169 -0.908986 -19.691395 0
M  V30 19 N 8.234784 6.168523 -10.739801 0 CHG=1
M  V30 20 O 8.113525 -0.590392 -20.393776 0
M  V30 21 C 9.125027 8.350366 -7.838675 0 CFG=1
M  V30 22 C 5.405674 -0.794729 -18.050792 0
M  V30 23 C 11.059615 6.789082 -5.210836 0
M  V30 24 C 7.674952 2.625552 -16.546389 0
M  V30 25 C 11.612486 6.828884 -7.724440 0
M  V30 26 C 6.611137 0.010730 -18.607128 0 CFG=1
M  V30 27 C 8.199135 -0.505277 -16.743225 0
M  V30 28 C 5.191834 -3.318330 -17.759990 0
M  V30 29 C 11.392148 7.583705 -9.010899 0 CFG=2
M  V30 30 C 7.804554 4.124153 -16.764739 0 CFG=1
M  V30 31 O 7.487564 2.190952 -18.943870 0
M  V30 32 C 7.653195 5.120705 -15.634102 0 CFG=1
M  V30 33 C 10.688532 7.269722 -6.613741 0 CFG=2
M  V30 34 O 6.262168 1.287833 -19.127706 0
M  V30 35 C 9.691550 6.100732 -10.632891 0 CFG=1
M  V30 36 H 6.557692 5.237571 -11.564897 0
M  V30 37 H 7.995537 4.240711 -11.553532 0
M  V30 38 H 10.136683 9.385390 -9.496021 0
M  V30 39 H 6.276008 4.605135 -14.090538 0
M  V30 40 H 7.778187 3.713254 -14.013054 0
M  V30 41 H 11.396835 6.964199 -11.862719 0
M  V30 42 H 9.826111 7.910706 -12.018876 0
M  V30 43 H 7.835321 5.769471 -7.982064 0
M  V30 44 H 9.155060 4.969706 -7.122713 0
M  V30 45 H 7.813779 5.764847 -6.219813 0
M  V30 46 H 10.682273 9.679910 -6.585362 0
M  V30 47 H 4.548545 -1.476815 -20.690740 0
M  V30 48 H 4.642843 -3.302079 -20.517340 0
M  V30 49 H 7.581449 -3.491609 -18.930194 0
M  V30 50 H 9.215726 1.841092 -17.870345 0
M  V30 51 H 8.999109 5.760358 -13.341063 0
M  V30 52 H 7.512587 6.682082 -13.362729 0
M  V30 53 H 7.907127 8.920813 -6.345472 0
M  V30 54 H 9.747096 4.342510 -15.670411 0
M  V30 55 H 9.413580 5.669486 -16.894890 0
M  V30 56 H 7.923629 7.123369 -10.882765 0
M  V30 57 H 5.455051 -0.902155 -16.966212 0
M  V30 58 H 4.464008 -0.291366 -18.273405 0
M  V30 59 H 10.207687 6.784053 -4.535251 0
M  V30 60 H 11.438605 5.767736 -5.237265 0
M  V30 61 H 11.834423 7.414520 -4.768364 0
M  V30 62 H 6.631781 2.408917 -16.332312 0
M  V30 63 H 8.237242 2.324535 -15.663722 0
M  V30 64 H 11.434592 5.768642 -7.893747 0
M  V30 65 H 12.651473 6.969222 -7.459283 0
M  V30 66 H 8.974055 -0.205928 -16.059416 0
M  V30 67 H 7.847276 -1.524923 -16.691929 0
M  V30 68 H 4.232905 -3.210286 -17.253726 0
M  V30 69 H 5.191427 -4.276489 -18.279833 0
M  V30 70 H 5.979046 -3.339023 -17.006381 0
M  V30 71 H 12.282205 8.050121 -9.429716 0
M  V30 72 H 7.389434 4.460405 -17.713060 0
M  V30 73 H 7.170747 6.058303 -15.904811 0
M  V30 74 H 10.092048 5.101914 -10.504261 0
M  V30 75 H 7.852579 5.937787 -9.832233 0
M  V30 END ATOM
M  V30 BEGIN BOND
M  V30 1 1 9 7
M  V30 2 1 11 10
M  V30 3 1 12 5 CFG=3
M  V30 4 1 13 7
M  V30 5 1 13 8 CFG=1
M  V30 6 1 13 9
M  V30 7 1 14 1
M  V30 8 1 14 3
M  V30 9 1 15 6
M  V30 10 1 15 12
M  V30 11 1 16 2
M  V30 12 1 16 4 CFG=3
M  V30 13 1 18 13
M  V30 14 1 19 1
M  V30 15 2 20 18
M  V30 16 1 21 2
M  V30 17 1 21 6
M  V30 18 1 21 12 CFG=1
M  V30 19 1 21 15
M  V30 20 1 22 9
M  V30 21 1 24 10
M  V30 22 1 26 11
M  V30 23 1 26 18
M  V30 24 1 26 22
M  V30 25 2 27 11
M  V30 26 1 9 28 CFG=1
M  V30 27 1 29 2
M  V30 28 1 29 16
M  V30 29 1 29 25
M  V30 30 1 30 17
M  V30 31 1 30 24
M  V30 32 1 31 10
M  V30 33 1 32 3
M  V30 34 1 32 17
M  V30 35 1 32 30
M  V30 36 1 33 6
M  V30 37 1 33 12
M  V30 38 1 33 23 CFG=1
M  V30 39 1 33 25
M  V30 40 1 26 34 CFG=3
M  V30 41 1 34 31
M  V30 42 1 35 4
M  V30 43 1 35 16
M  V30 44 1 35 19
M  V30 45 1 36 1
M  V30 46 1 37 1
M  V30 47 1 2 38 CFG=3
M  V30 48 1 39 3
M  V30 49 1 40 3
M  V30 50 1 41 4
M  V30 51 1 42 4
M  V30 52 1 43 5
M  V30 53 1 44 5
M  V30 54 1 45 5
M  V30 55 1 6 46 CFG=3
M  V30 56 1 47 7
M  V30 57 1 48 7
M  V30 58 1 49 8
M  V30 59 1 10 50 CFG=3
M  V30 60 1 51 14
M  V30 61 1 52 14
M  V30 62 1 15 53 CFG=3
M  V30 63 1 54 17
M  V30 64 1 55 17
M  V30 65 1 56 19
M  V30 66 1 57 22
M  V30 67 1 58 22
M  V30 68 1 59 23
M  V30 69 1 60 23
M  V30 70 1 61 23
M  V30 71 1 62 24
M  V30 72 1 63 24
M  V30 73 1 64 25
M  V30 74 1 65 25
M  V30 75 1 66 27
M  V30 76 1 67 27
M  V30 77 1 68 28
M  V30 78 1 69 28
M  V30 79 1 70 28
M  V30 80 1 29 71 CFG=3
M  V30 81 1 30 72 CFG=3
M  V30 82 1 32 73 CFG=3
M  V30 83 1 35 74 CFG=1
M  V30 84 1 75 19
M  V30 END BOND
M  V30 END CTAB
M  END
>  <i_epik_Tot_Q>  (1) 
1

>  <i_epik_Tot_abs_Q>  (1) 
1

>  <i_i_glide_confnum>  (1) 
208

>  <i_i_glide_lignum>  (1) 
159

>  <i_i_glide_posenum>  (1) 
357

>  <i_i_glide_rotatable_bonds>  (1) 
8

>  <i_lp_mmshare_version>  (1) 
72125

>  <i_m_source_file_index>  (1) 
79

>  <i_f3d_flags>  (1) 
2

>  <num_sample>  (1) 
100

>  <b_lp_Chiralities_Consistent>  (1) 
0

>  <r_epik_Charging_Adjusted_Penalty>  (1) 
0.013403952672872374

>  <r_epik_Ionization_Penalty>  (1) 
0.0067020061750241401

>  <r_epik_Ionization_Penalty_Charging>  (1) 
0.0067019763364361854

>  <r_epik_Ionization_Penalty_Neutral>  (1) 
2.9838587954806154e-08

>  <r_epik_State_Penalty>  (1) 
0.0067019763364361889

>  <r_glide_ring_energy>  (1) 
0.40288230367583672

>  <r_i_docking_score>  (1) 
-4.7682500620450217

>  <r_i_glide_ecoul>  (1) 
-7.0255462629573406

>  <r_i_glide_eff_state_penalty>  (1) 
0.0067019763364361889

>  <r_i_glide_einternal>  (1) 
3.8758727263208677

>  <r_i_glide_emodel>  (1) 
-32.292765220486359

>  <r_i_glide_emodel_strain>  (1) 
1.6615113634451291

>  <r_i_glide_energy>  (1) 
-33.06318270091807

>  <r_i_glide_erotb>  (1) 
0.61918083284399961

>  <r_i_glide_esite>  (1) 
-0.088655601547876828

>  <r_i_glide_evdw>  (1) 
-26.037636437960728

>  <r_i_glide_gscore>  (1) 
-4.7749520383814579

>  <r_i_glide_gscore_strain>  (1) 
0

>  <r_i_glide_hbond>  (1) 
-0.058740570095175665

>  <r_i_glide_ligand_efficiency>  (1) 
-0.13623571605842918

>  <r_i_glide_ligand_efficiency_ln>  (1) 
-1.0467367142272765

>  <r_i_glide_ligand_efficiency_sa>  (1) 
-0.44563606104314646

>  <r_i_glide_lipo>  (1) 
-1.8798208482732053

>  <r_i_glide_metal>  (1) 
-0

>  <r_i_glide_rewards>  (1) 
-1.0112020899675618

>  <r_lp_Energy>  (1) 
113.50332999999999

>  <s_epik_cmdline>  (1) 
J2VwaWtfcHl0aG9uJywgJy1waHQnLCAnMS4wJywgJy1waCcsICc3LjQnLCAnLXRuJywgJzgnLCAnLW1hJywgJzUwMCcsICctaW1hZScsICc8aW5maWxlLm1hZT4nLCAnLW9tYWUnLCAnPG91dGZpbGUubWFlPic=

>  <s_epik_input>  (1) 
W0NASF0xMltDSDJdQzMoW0NIM10pQzQoW0NIM10pW0NIXTVbQ0hdM0M0NVtDQEhdMVtDQF0yNltDSDJdW0NAQEhdNltOSF1bQ0gyXVtDSDJdW0NIMl1bQ0BIXTdbQ0gyXVtDQEhdN1tDSDJdW0NASF0oT084KUMoPVtDSDJdKVtDQF04OUMoPU8pW0NAXTEoW09IXSlbQ0BdKFtDSDJdMSkoW0NIMl05KVtDSDNd

>  <s_glide_docking_method>  (1) 
confgen

>  <s_i_glide_gridfile>  (1) 
gpcr_drd2_6luq_protein_autoprepared_prepared

>  <s_lp_Force_Field>  (1) 
S-OPLS

>  <s_lp_Variant>  (1) 
DiffSBDD_78_num_sample_100-1

>  <s_m_source_file>  (1) 
generated__ligand_DiffSBDD_2026-05-06_prepared.sdf

>  <GenAI_Model>  (1) 
DiffSBDD

>  <Protein>  (1) 
generic_title2

$$$$
DiffSBDD_23_num_sample_100
     RDKit          3D

  0  0  0  0  0  0  0  0  0  0999 V3000
M  V30 BEGIN CTAB
M  V30 COUNTS 71 73 0 0 1
M  V30 BEGIN ATOM
M  V30 1 C 9.033550 6.078059 -9.634276 0 CFG=1
M  V30 2 C 8.618436 5.317724 -13.369174 0
M  V30 3 O 6.574923 2.957339 -18.683535 0
M  V30 4 C 7.611087 2.689413 -16.113514 0
M  V30 5 N 7.434534 1.580734 -17.066363 0
M  V30 6 O 9.474756 -0.531826 -19.567212 0
M  V30 7 C 8.437620 5.166755 -15.825528 0
M  V30 8 C 6.873611 1.820051 -18.306126 0
M  V30 9 C 7.271853 1.400393 -21.443329 0
M  V30 10 C 5.434211 6.092575 -10.902143 0
M  V30 11 N 6.694281 0.714627 -19.108890 0
M  V30 12 C 9.445073 -0.629960 -18.321057 0
M  V30 13 C 7.821790 0.253653 -16.564790 0 CFG=1
M  V30 14 O 10.441361 -0.623857 -17.565026 0 CHG=-1
M  V30 15 C 5.680546 4.923990 -13.300366 0
M  V30 16 C 9.762685 6.580130 -7.233148 0 CFG=1
M  V30 17 O 10.647770 6.169375 -6.214516 0
M  V30 18 C 9.614712 7.443650 -10.104742 0
M  V30 19 O 6.907047 -0.230536 -15.595555 0
M  V30 20 O 9.834804 5.369375 -13.463746 0
M  V30 21 N 11.038753 9.606333 -5.891665 0
M  V30 22 N 7.819216 5.166577 -14.477332 0
M  V30 23 C 6.195034 0.863368 -20.487947 0
M  V30 24 S 6.347177 4.800679 -11.707502 0 CHG=1
M  V30 25 C 10.622443 8.882755 -6.696776 0
M  V30 26 C 8.924944 5.064829 -10.797837 0
M  V30 27 C 8.061747 -0.784690 -17.654259 0 CFG=1
M  V30 28 C 6.877129 -0.647875 -18.602383 0 CFG=1
M  V30 29 C 10.149258 7.970837 -7.691538 0
M  V30 30 C 8.647856 3.774295 -16.493013 0
M  V30 31 C 4.531285 -1.189202 -18.679830 0
M  V30 32 C 10.082680 8.351091 -8.977799 0
M  V30 33 C 9.791669 5.560790 -8.395787 0
M  V30 34 C 7.969641 5.489243 -11.970695 0 CFG=1
M  V30 35 C 6.407394 5.072153 -14.415514 0
M  V30 36 C 5.140714 7.264716 -11.491838 0
M  V30 37 O 5.731032 -1.091806 -17.927198 0
M  V30 38 H 8.017492 6.169304 -9.269192 0
M  V30 39 H 7.832321 2.312239 -15.113679 0
M  V30 40 H 6.634842 3.137638 -16.033307 0
M  V30 41 H 7.787692 5.751647 -16.477571 0
M  V30 42 H 9.378670 5.718591 -15.849919 0
M  V30 43 H 6.870682 1.508339 -22.451267 0
M  V30 44 H 7.641880 2.376988 -21.130581 0
M  V30 45 H 8.122981 0.721741 -21.497793 0
M  V30 46 H 5.118257 5.892179 -9.891760 0
M  V30 47 H 8.745429 0.388353 -16.006828 0
M  V30 48 H 4.618073 4.851772 -13.364486 0
M  V30 49 H 8.753601 6.636334 -6.820921 0
M  V30 50 H 10.368740 5.322240 -5.891658 0
M  V30 51 H 8.883511 7.999828 -10.690327 0
M  V30 52 H 10.472454 7.276001 -10.757138 0
M  V30 53 H 7.074741 -1.157208 -15.474385 0
M  V30 54 H 5.830293 -0.086777 -20.878052 0
M  V30 55 H 5.330339 1.528938 -20.495541 0
M  V30 56 H 9.930280 4.837926 -11.141605 0
M  V30 57 H 8.573981 4.121055 -10.388729 0
M  V30 58 H 8.048890 -1.791372 -17.232640 0
M  V30 59 H 7.028792 -1.307296 -19.459349 0
M  V30 60 H 8.649778 3.937878 -17.569983 0
M  V30 61 H 9.649905 3.401306 -16.291718 0
M  V30 62 H 3.771344 -1.670066 -18.067937 0
M  V30 63 H 4.146371 -0.209992 -18.964536 0
M  V30 64 H 4.670109 -1.795596 -19.575485 0
M  V30 65 H 10.380601 9.351167 -9.255231 0
M  V30 66 H 10.821047 5.370814 -8.665009 0
M  V30 67 H 9.372138 4.609595 -8.068188 0
M  V30 68 H 7.821652 6.565604 -11.931580 0
M  V30 69 H 5.942939 5.116181 -15.390209 0
M  V30 70 H 4.583839 8.025414 -10.966237 0
M  V30 71 H 5.453019 7.477614 -12.502875 0
M  V30 END ATOM
M  V30 BEGIN BOND
M  V30 1 1 5 4
M  V30 2 2 8 3
M  V30 3 1 8 5
M  V30 4 1 11 8
M  V30 5 2 12 6
M  V30 6 1 13 5
M  V30 7 1 14 12
M  V30 8 1 17 16
M  V30 9 1 18 1
M  V30 10 1 19 13
M  V30 11 2 20 2
M  V30 12 1 22 2
M  V30 13 1 22 7
M  V30 14 1 23 9
M  V30 15 1 23 11
M  V30 16 1 24 10 CFG=1
M  V30 17 1 24 15
M  V30 18 3 25 21
M  V30 19 1 26 1
M  V30 20 1 27 12
M  V30 21 1 27 13
M  V30 22 1 28 11
M  V30 23 1 28 27
M  V30 24 1 29 16
M  V30 25 1 29 25
M  V30 26 1 30 4
M  V30 27 1 30 7
M  V30 28 1 32 18
M  V30 29 2 32 29
M  V30 30 1 33 1
M  V30 31 1 33 16
M  V30 32 1 34 2
M  V30 33 1 34 24
M  V30 34 1 34 26
M  V30 35 2 35 15
M  V30 36 1 35 22
M  V30 37 2 36 10
M  V30 38 1 37 28
M  V30 39 1 37 31
M  V30 40 1 1 38 CFG=1
M  V30 41 1 39 4
M  V30 42 1 40 4
M  V30 43 1 41 7
M  V30 44 1 42 7
M  V30 45 1 43 9
M  V30 46 1 44 9
M  V30 47 1 45 9
M  V30 48 1 46 10
M  V30 49 1 13 47 CFG=1
M  V30 50 1 48 15
M  V30 51 1 16 49 CFG=1
M  V30 52 1 50 17
M  V30 53 1 51 18
M  V30 54 1 52 18
M  V30 55 1 53 19
M  V30 56 1 54 23
M  V30 57 1 55 23
M  V30 58 1 56 26
M  V30 59 1 57 26
M  V30 60 1 27 58 CFG=1
M  V30 61 1 28 59 CFG=3
M  V30 62 1 60 30
M  V30 63 1 61 30
M  V30 64 1 62 31
M  V30 65 1 63 31
M  V30 66 1 64 31
M  V30 67 1 65 32
M  V30 68 1 66 33
M  V30 69 1 67 33
M  V30 70 1 34 68 CFG=1
M  V30 71 1 69 35
M  V30 72 1 70 36
M  V30 73 1 71 36
M  V30 END BOND
M  V30 END CTAB
M  END
>  <i_epik_Tot_Q>  (1) 
0

>  <i_epik_Tot_abs_Q>  (1) 
2

>  <i_i_glide_confnum>  (1) 
385

>  <i_i_glide_lignum>  (1) 
37

>  <i_i_glide_posenum>  (1) 
169

>  <i_i_glide_rotatable_bonds>  (1) 
12

>  <i_lp_mmshare_version>  (1) 
72125

>  <i_m_source_file_index>  (1) 
24

>  <i_f3d_flags>  (1) 
0

>  <num_sample>  (1) 
100

>  <b_lp_Chiralities_Consistent>  (1) 
1

>  <r_epik_Charging_Adjusted_Penalty>  (1) 
5.7553869782388246e-05

>  <r_epik_Ionization_Penalty>  (1) 
0.00064862511437644094

>  <r_epik_Ionization_Penalty_Charging>  (1) 
5.7553869782388246e-05

>  <r_epik_Ionization_Penalty_Neutral>  (1) 
0.00059107124459405267

>  <r_epik_State_Penalty>  (1) 
-0

>  <r_glide_ring_energy>  (1) 
0.11565553091839288

>  <r_i_docking_score>  (1) 
-4.7632700213159467

>  <r_i_glide_ecoul>  (1) 
-5.0306107497100241

>  <r_i_glide_eff_state_penalty>  (1) 
-0

>  <r_i_glide_einternal>  (1) 
10.820155179003393

>  <r_i_glide_emodel>  (1) 
-46.184185386490562

>  <r_i_glide_emodel_strain>  (1) 
1.7279549032160659

>  <r_i_glide_energy>  (1) 
-41.5139733556151

>  <r_i_glide_erotb>  (1) 
0.50545294074296965

>  <r_i_glide_esite>  (1) 
-0.012811185011585336

>  <r_i_glide_evdw>  (1) 
-36.483362605905079

>  <r_i_glide_gscore>  (1) 
-4.7632700213159467

>  <r_i_glide_gscore_strain>  (1) 
0

>  <r_i_glide_hbond>  (1) 
-0.32000000000000001

>  <r_i_glide_ligand_efficiency>  (1) 
-0.12873702760313369

>  <r_i_glide_ligand_efficiency_ln>  (1) 
-1.0330416007307217

>  <r_i_glide_ligand_efficiency_sa>  (1) 
-0.42898033649511041

>  <r_i_glide_lipo>  (1) 
-0.85696381756513074

>  <r_i_glide_metal>  (1) 
-0

>  <r_i_glide_rewards>  (1) 
-1.500188216730443

>  <r_lp_Energy>  (1) 
40.759158999999997

>  <r_lp_tautomer_probability>  (1) 
1

>  <s_epik_Chemistry_Notes>  (1) 
This compound contains an acetal/aminal-like group ( X-CH(R)-Y where X, Y are N, S, or O) that may be acid/base labile, releasing an aldehyde.

>  <s_epik_cmdline>  (1) 
J2VwaWtfcHl0aG9uJywgJy1waHQnLCAnMS4wJywgJy1waCcsICc3LjQnLCAnLXRuJywgJzgnLCAnLW1hJywgJzUwMCcsICctaW1hZScsICc8aW5maWxlLm1hZT4nLCAnLW9tYWUnLCAnPG91dGZpbGUubWFlPic=

>  <s_epik_input>  (1) 
W09IXVtDQEhdKFtDSDJdMSlDKEMjTik9W0NIXVtDSDJdW0NASF0xW0NIMl1bQ0BASF0yW1MrXShbQ0hdPVtDSDJdKVtDSF09W0NIXU4oQzI9TylbQ0gyXVtDSDJdW0NIMl1OM0MoPU8pTihbQ0gyXVtDSDNdKVtDQEhdKE9bQ0gzXSlbQ0BASF0oQyg9TylbT0hdKVtDQEBIXTNbT0hd

>  <s_glide_docking_method>  (1) 
confgen

>  <s_i_glide_gridfile>  (1) 
gpcr_drd2_6luq_protein_autoprepared_prepared

>  <s_lp_Force_Field>  (1) 
S-OPLS

>  <s_lp_Variant>  (1) 
DiffSBDD_23_num_sample_100-1

>  <s_m_source_file>  (1) 
generated__ligand_DiffSBDD_2026-05-06_prepared.sdf

>  <GenAI_Model>  (1) 
DiffSBDD

>  <Protein>  (1) 
generic_title2

$$$$
DiffSBDD_44_num_sample_100
     RDKit          3D

  0  0  0  0  0  0  0  0  0  0999 V3000
M  V30 BEGIN CTAB
M  V30 COUNTS 56 58 0 0 1
M  V30 BEGIN ATOM
M  V30 1 C 9.115705 5.398088 -18.449184 0
M  V30 2 C 9.305630 4.567585 -17.151940 0 CFG=1
M  V30 3 C 10.267149 6.534988 -6.659928 0
M  V30 4 C 11.589404 8.968856 -6.150178 0
M  V30 5 C 11.176019 8.660091 -7.459602 0
M  V30 6 C 8.163268 4.119817 -12.382751 0
M  V30 7 C 9.092289 3.093851 -17.477808 0
M  V30 8 N 10.731750 4.515138 -16.694549 0 CFG=1 CHG=1
M  V30 9 C 9.416435 4.745750 -11.749053 0
M  V30 10 C 9.434862 6.051930 -9.517132 0
M  V30 11 O 9.114928 5.100747 -8.808913 0
M  V30 12 C 11.352641 8.065168 -5.103639 0
M  V30 13 N 12.234734 10.169289 -5.891652 0
M  V30 14 C 10.347617 2.271154 -17.598076 0
M  V30 15 N 10.084621 7.154407 -9.107959 0
M  V30 16 C 7.691377 4.841450 -13.655871 0
M  V30 17 O 7.396327 5.769299 -16.274435 0
M  V30 18 C 9.943915 7.306584 -11.442352 0
M  V30 19 C 11.409699 3.345324 -17.324977 0
M  V30 20 N 8.560322 4.528297 -14.785946 0
M  V30 21 C 11.516087 5.766155 -16.790106 0
M  V30 22 C 9.110799 6.066877 -10.999181 0 CFG=1
M  V30 23 C 10.344347 8.107015 -10.167732 0
M  V30 24 C 10.508762 7.440380 -7.731100 0
M  V30 25 C 8.332362 5.010774 -16.022345 0
M  V30 26 C 10.694052 6.852648 -5.357810 0
M  V30 27 O 7.974204 2.607213 -17.637066 0
M  V30 28 H 8.108314 5.276138 -18.851790 0
M  V30 29 H 9.261497 6.465972 -18.284334 0
M  V30 30 H 9.810113 5.091545 -19.232665 0
M  V30 31 H 9.764898 5.606939 -6.816191 0
M  V30 32 H 11.367525 9.363731 -8.253719 0
M  V30 33 H 8.356325 3.070904 -12.612182 0
M  V30 34 H 7.357508 4.113100 -11.647049 0
M  V30 35 H 10.183292 4.893261 -12.509183 0
M  V30 36 H 9.834887 4.012219 -11.059848 0
M  V30 37 H 11.674436 8.303005 -4.100369 0
M  V30 38 H 12.375316 10.472582 -4.940050 0
M  V30 39 H 12.235082 10.899805 -6.587627 0
M  V30 40 H 10.344204 1.487374 -16.841881 0
M  V30 41 H 10.446811 1.821617 -18.586317 0
M  V30 42 H 6.678442 4.513722 -13.895827 0
M  V30 43 H 7.643558 5.920449 -13.497264 0
M  V30 44 H 10.851089 6.988648 -11.957358 0
M  V30 45 H 9.387563 7.931902 -12.141815 0
M  V30 46 H 12.215333 2.971801 -16.691787 0
M  V30 47 H 11.859320 3.647468 -18.272734 0
M  V30 48 H 9.333501 3.904864 -14.623410 0
M  V30 49 H 11.686354 6.069583 -17.823765 0
M  V30 50 H 11.000078 6.569312 -16.274097 0
M  V30 51 H 12.488141 5.636981 -16.312075 0
M  V30 52 H 8.051206 6.316408 -11.074702 0
M  V30 53 H 9.693690 8.969281 -10.021632 0
M  V30 54 H 11.385883 8.426194 -10.219370 0
M  V30 55 H 10.509887 6.160794 -4.548869 0
M  V30 56 H 10.699150 4.299412 -15.708524 0
M  V30 END ATOM
M  V30 BEGIN BOND
M  V30 1 1 2 1 CFG=3
M  V30 2 2 5 4
M  V30 3 1 7 2
M  V30 4 1 8 2
M  V30 5 1 9 6
M  V30 6 2 11 10
M  V30 7 1 12 4
M  V30 8 1 13 4
M  V30 9 1 14 7
M  V30 10 1 15 10
M  V30 11 1 16 6
M  V30 12 1 19 8
M  V30 13 1 19 14
M  V30 14 1 20 16
M  V30 15 1 21 8
M  V30 16 1 22 9
M  V30 17 1 22 10
M  V30 18 1 22 18
M  V30 19 1 23 15
M  V30 20 1 23 18
M  V30 21 2 24 3
M  V30 22 1 24 5
M  V30 23 1 24 15
M  V30 24 1 25 2
M  V30 25 2 25 17
M  V30 26 1 25 20
M  V30 27 1 26 3
M  V30 28 2 26 12
M  V30 29 2 27 7
M  V30 30 1 28 1
M  V30 31 1 29 1
M  V30 32 1 30 1
M  V30 33 1 31 3
M  V30 34 1 32 5
M  V30 35 1 33 6
M  V30 36 1 34 6
M  V30 37 1 35 9
M  V30 38 1 36 9
M  V30 39 1 37 12
M  V30 40 1 38 13
M  V30 41 1 39 13
M  V30 42 1 40 14
M  V30 43 1 41 14
M  V30 44 1 42 16
M  V30 45 1 43 16
M  V30 46 1 44 18
M  V30 47 1 45 18
M  V30 48 1 46 19
M  V30 49 1 47 19
M  V30 50 1 48 20
M  V30 51 1 49 21
M  V30 52 1 50 21
M  V30 53 1 51 21
M  V30 54 1 22 52 CFG=1
M  V30 55 1 53 23
M  V30 56 1 54 23
M  V30 57 1 55 26
M  V30 58 1 8 56 CFG=1
M  V30 END BOND
M  V30 END CTAB
M  END
>  <i_epik_Tot_Q>  (1) 
1

>  <i_epik_Tot_abs_Q>  (1) 
1

>  <i_i_glide_confnum>  (1) 
188

>  <i_i_glide_lignum>  (1) 
79

>  <i_i_glide_posenum>  (1) 
105

>  <i_i_glide_rotatable_bonds>  (1) 
7

>  <i_lp_mmshare_version>  (1) 
72125

>  <i_m_source_file_index>  (1) 
45

>  <i_f3d_flags>  (1) 
0

>  <num_sample>  (1) 
100

>  <b_lp_Chiralities_Consistent>  (1) 
1

>  <r_epik_Charging_Adjusted_Penalty>  (1) 
0.87787264938008924

>  <r_epik_Ionization_Penalty>  (1) 
0.44040452980928141

>  <r_epik_Ionization_Penalty_Charging>  (1) 
0.43893632469004462

>  <r_epik_Ionization_Penalty_Neutral>  (1) 
0.0014682051192367804

>  <r_epik_State_Penalty>  (1) 
0.43893632469004457

>  <r_glide_ring_energy>  (1) 
0

>  <r_i_docking_score>  (1) 
-4.7588264017817039

>  <r_i_glide_ecoul>  (1) 
-2.7170269323656764

>  <r_i_glide_eff_state_penalty>  (1) 
0.43893632469004457

>  <r_i_glide_einternal>  (1) 
11.301643001234712

>  <r_i_glide_emodel>  (1) 
-42.460534694900772

>  <r_i_glide_emodel_strain>  (1) 
0.78618731896989402

>  <r_i_glide_energy>  (1) 
-37.850966558833917

>  <r_i_glide_erotb>  (1) 
0.96983297192060391

>  <r_i_glide_esite>  (1) 
-0.15320678180379088

>  <r_i_glide_evdw>  (1) 
-35.133939626468241

>  <r_i_glide_gscore>  (1) 
-5.1977627264717485

>  <r_i_glide_gscore_strain>  (1) 
0

>  <r_i_glide_hbond>  (1) 
0

>  <r_i_glide_ligand_efficiency>  (1) 
-0.17625282969561867

>  <r_i_glide_ligand_efficiency_ln>  (1) 
-1.1077763309499258

>  <r_i_glide_ligand_efficiency_sa>  (1) 
-0.52875848908685608

>  <r_i_glide_lipo>  (1) 
-2.0232161707730945

>  <r_i_glide_metal>  (1) 
-0

>  <r_i_glide_rewards>  (1) 
-1.8269217246372023

>  <r_lp_Energy>  (1) 
25.411044

>  <r_lp_tautomer_probability>  (1) 
0.99995000000000001

>  <s_epik_cmdline>  (1) 
J2VwaWtfcHl0aG9uJywgJy1waHQnLCAnMS4wJywgJy1waCcsICc3LjQnLCAnLXRuJywgJzgnLCAnLW1hJywgJzUwMCcsICctaW1hZScsICc8aW5maWxlLm1hZT4nLCAnLW9tYWUnLCAnPG91dGZpbGUubWFlPic=

>  <s_epik_input>  (1) 
W0NIM11OMVtDSDJdW0NIMl1DKD1PKVtDQEBdMShbQ0gzXSlDKD1PKVtOSF1bQ0gyXVtDSDJdW0NIMl1bQ0BASF0yW0NIMl1bQ0gyXU4oQzI9TyljKFtjSF1bY0hdW2NIXTMpW2NIXWMzW05IMl0=

>  <s_glide_docking_method>  (1) 
confgen

>  <s_i_glide_gridfile>  (1) 
gpcr_drd2_6luq_protein_autoprepared_prepared

>  <s_lp_Force_Field>  (1) 
S-OPLS

>  <s_lp_Variant>  (1) 
DiffSBDD_44_num_sample_100-4

>  <s_m_source_file>  (1) 
generated__ligand_DiffSBDD_2026-05-06_prepared.sdf

>  <GenAI_Model>  (1) 
DiffSBDD

>  <Protein>  (1) 
generic_title2

$$$$
DiffSBDD_87_num_sample_100
     RDKit          3D

  0  0  0  0  0  0  0  0  0  0999 V3000
M  V30 BEGIN CTAB
M  V30 COUNTS 51 54 0 0 1
M  V30 BEGIN ATOM
M  V30 1 C 6.030772 8.054462 -21.275885 0
M  V30 2 C 7.675023 6.784081 -19.774950 0
M  V30 3 C 4.739541 7.769704 -19.162948 0
M  V30 4 C 5.833410 4.649495 -13.673771 0
M  V30 5 C 10.360655 7.842064 -8.711270 0
M  V30 6 S 6.634856 5.509583 -16.192861 0
M  V30 7 C 10.181324 7.308544 -10.000446 0
M  V30 8 C 7.466752 6.437165 -13.724746 0
M  V30 9 C 7.265446 7.654586 -20.923144 0
M  V30 10 C 8.859912 5.474324 -9.059600 0
M  V30 11 C 6.494067 4.576768 -19.659126 0
M  V30 12 O 6.567700 6.264722 -11.491677 0
M  V30 13 S 9.248369 5.423451 -11.798439 0
M  V30 14 C 9.787396 7.196256 -7.594726 0
M  V30 15 C 9.034836 6.013494 -7.769728 0
M  V30 16 O 6.140797 8.821004 -22.381080 0
M  V30 17 N 7.524463 8.889998 -22.697711 0
M  V30 18 C 4.678054 7.817004 -20.699818 0
M  V30 19 C 6.530955 5.880524 -19.334040 0
M  V30 20 C 9.434834 6.126688 -10.162639 0
M  V30 21 N 6.902300 4.402571 -12.721966 0
M  V30 22 O 9.434827 3.973229 -11.644520 0
M  V30 23 N 8.185416 8.179563 -21.812491 0
M  V30 24 O 10.160772 6.169022 -12.681150 0
M  V30 25 C 5.419174 6.540069 -18.505125 0 CFG=1
M  V30 26 F 11.087798 8.969281 -8.541623 0
M  V30 27 C 6.248497 5.898057 -14.460573 0 CFG=2
M  V30 28 C 7.493731 5.688004 -12.389403 0 CFG=2
M  V30 29 C 5.857461 6.898170 -17.067470 0
M  V30 30 H 8.024374 7.369443 -18.928025 0
M  V30 31 H 8.522791 6.164122 -20.070173 0
M  V30 32 H 3.729595 7.855116 -18.760570 0
M  V30 33 H 5.253934 8.673574 -18.840205 0
M  V30 34 H 5.685773 3.769197 -14.292235 0
M  V30 35 H 4.908371 4.836573 -13.130137 0
M  V30 36 H 10.622522 7.797193 -10.855870 0
M  V30 37 H 7.455383 7.521495 -13.609878 0
M  V30 38 H 8.351134 6.176661 -14.305801 0
M  V30 39 H 8.289587 4.569374 -9.199105 0
M  V30 40 H 7.281524 4.126806 -20.245330 0
M  V30 41 H 5.676793 3.945769 -19.342416 0
M  V30 42 H 7.000981 6.753373 -10.789690 0
M  V30 43 H 9.922871 7.607691 -6.605568 0
M  V30 44 H 8.592490 5.525154 -6.916553 0
M  V30 45 H 4.004889 8.617306 -21.009576 0
M  V30 46 H 4.261051 6.889548 -21.092516 0
M  V30 47 H 6.580933 3.926716 -11.892134 0
M  V30 48 H 4.640519 5.782266 -18.409125 0
M  V30 49 H 5.434998 6.620029 -14.407604 0
M  V30 50 H 4.973181 7.215221 -16.514341 0
M  V30 51 H 6.546358 7.741568 -17.052626 0
M  V30 END ATOM
M  V30 BEGIN BOND
M  V30 1 2 7 5
M  V30 2 2 9 1
M  V30 3 1 9 2
M  V30 4 1 14 5
M  V30 5 1 15 10
M  V30 6 2 15 14
M  V30 7 1 16 1
M  V30 8 1 17 16
M  V30 9 1 18 1
M  V30 10 1 18 3
M  V30 11 1 19 2
M  V30 12 2 19 11
M  V30 13 1 20 7
M  V30 14 2 20 10
M  V30 15 1 20 13
M  V30 16 1 21 4
M  V30 17 2 22 13
M  V30 18 1 23 9
M  V30 19 2 23 17
M  V30 20 2 24 13
M  V30 21 1 25 3
M  V30 22 1 25 19
M  V30 23 1 26 5
M  V30 24 1 27 4
M  V30 25 1 27 6
M  V30 26 1 27 8
M  V30 27 1 28 8
M  V30 28 1 28 12 CFG=1
M  V30 29 1 28 13
M  V30 30 1 28 21
M  V30 31 1 29 6
M  V30 32 1 29 25
M  V30 33 1 30 2
M  V30 34 1 31 2
M  V30 35 1 32 3
M  V30 36 1 33 3
M  V30 37 1 34 4
M  V30 38 1 35 4
M  V30 39 1 36 7
M  V30 40 1 37 8
M  V30 41 1 38 8
M  V30 42 1 39 10
M  V30 43 1 40 11
M  V30 44 1 41 11
M  V30 45 1 42 12
M  V30 46 1 43 14
M  V30 47 1 44 15
M  V30 48 1 45 18
M  V30 49 1 46 18
M  V30 50 1 47 21
M  V30 51 1 25 48 CFG=1
M  V30 52 1 27 49 CFG=3
M  V30 53 1 50 29
M  V30 54 1 51 29
M  V30 END BOND
M  V30 END CTAB
M  END
>  <i_epik_Tot_Q>  (1) 
0

>  <i_epik_Tot_abs_Q>  (1) 
0

>  <i_i_glide_confnum>  (1) 
230

>  <i_i_glide_lignum>  (1) 
177

>  <i_i_glide_posenum>  (1) 
170

>  <i_i_glide_rotatable_bonds>  (1) 
6

>  <i_lp_mmshare_version>  (1) 
72125

>  <i_m_source_file_index>  (1) 
88

>  <i_f3d_flags>  (1) 
0

>  <num_sample>  (1) 
100

>  <b_lp_Chiralities_Consistent>  (1) 
1

>  <r_epik_Charging_Adjusted_Penalty>  (1) 
0

>  <r_epik_Ionization_Penalty>  (1) 
0.0001098004903757838

>  <r_epik_Ionization_Penalty_Charging>  (1) 
0

>  <r_epik_Ionization_Penalty_Neutral>  (1) 
0.0001098004903757838

>  <r_epik_State_Penalty>  (1) 
-0

>  <r_glide_ring_energy>  (1) 
0.13793408514299585

>  <r_i_docking_score>  (1) 
-4.751357235625532

>  <r_i_glide_ecoul>  (1) 
-1.9491866686681369

>  <r_i_glide_eff_state_penalty>  (1) 
-0

>  <r_i_glide_einternal>  (1) 
9.5965258661683794

>  <r_i_glide_emodel>  (1) 
-40.645039830731619

>  <r_i_glide_emodel_strain>  (1) 
1.5176830550946647

>  <r_i_glide_energy>  (1) 
-36.666561806307485

>  <r_i_glide_erotb>  (1) 
0.51657056341793117

>  <r_i_glide_esite>  (1) 
-0.027195898090017573

>  <r_i_glide_evdw>  (1) 
-34.717375137639351

>  <r_i_glide_gscore>  (1) 
-4.751357235625532

>  <r_i_glide_gscore_strain>  (1) 
0

>  <r_i_glide_hbond>  (1) 
-0.15703470838147396

>  <r_i_glide_ligand_efficiency>  (1) 
-0.16383990467674248

>  <r_i_glide_ligand_efficiency_ln>  (1) 
-1.0879403229343974

>  <r_i_glide_ligand_efficiency_sa>  (1) 
-0.50336809585712139

>  <r_i_glide_lipo>  (1) 
-1.7918851310384878

>  <r_i_glide_metal>  (1) 
-0

>  <r_i_glide_rewards>  (1) 
-1.2635653043512951

>  <r_lp_Energy>  (1) 
18.696739000000001

>  <r_lp_tautomer_probability>  (1) 
1

>  <s_epik_cmdline>  (1) 
J2VwaWtfcHl0aG9uJywgJy1waHQnLCAnMS4wJywgJy1waCcsICc3LjQnLCAnLXRuJywgJzgnLCAnLW1hJywgJzUwMCcsICctaW1hZScsICc8aW5maWxlLm1hZT4nLCAnLW9tYWUnLCAnPG91dGZpbGUubWFlPic=

>  <s_epik_input>  (1) 
bzFubmMoYzEyKVtDSDJdQyg9W0NIMl0pW0NASF0oW0NIMl1bQ0gyXTIpW0NIMl1TW0NAQEhdKFtDSDJdW05IXTMpW0NIMl1bQ0BdMyhbT0hdKVMoPU8pKD1PKWMoW2NIXWM0RilbY0hdW2NIXVtjSF00

>  <s_glide_docking_method>  (1) 
confgen

>  <s_i_glide_gridfile>  (1) 
gpcr_drd2_6luq_protein_autoprepared_prepared

>  <s_lp_Force_Field>  (1) 
S-OPLS

>  <s_lp_Variant>  (1) 
DiffSBDD_87_num_sample_100-1

>  <s_m_source_file>  (1) 
generated__ligand_DiffSBDD_2026-05-06_prepared.sdf

>  <GenAI_Model>  (1) 
DiffSBDD

>  <Protein>  (1) 
generic_title2

$$$$
DiffSBDD_28_num_sample_100
     RDKit          3D

  0  0  0  0  0  0  0  0  0  0999 V3000
M  V30 BEGIN CTAB
M  V30 COUNTS 42 43 0 0 1
M  V30 BEGIN ATOM
M  V30 1 C 11.631779 6.705302 -2.737974 0
M  V30 2 C 8.541740 4.706651 -11.732448 0
M  V30 3 C 11.192672 6.525051 -4.210401 0
M  V30 4 N 10.317307 6.423454 -6.970937 0
M  V30 5 C 12.287835 9.086344 -3.207759 0
M  V30 6 C 10.025264 6.290887 -8.223763 0
M  V30 7 C 11.834839 8.902739 -4.641922 0
M  V30 8 O 10.035323 7.162062 -10.449195 0
M  V30 9 C 7.945279 5.091969 -9.319513 0
M  V30 10 C 6.373904 5.697373 -11.091681 0
M  V30 11 C 9.379397 4.999142 -8.743798 0
M  V30 12 C 8.595216 5.355491 -13.124196 0
M  V30 13 C 11.173721 8.581177 -7.518724 0
M  V30 14 N 10.893730 8.569299 -8.835889 0 CHG=-1
M  V30 15 N 7.805950 5.533913 -10.734634 0 CFG=2 CHG=1
M  V30 16 C 12.725118 7.756842 -2.586832 0
M  V30 17 C 10.324494 7.405363 -9.279005 0
M  V30 18 C 10.945442 7.611641 -6.551634 0
M  V30 19 C 11.334200 7.741193 -5.130265 0
M  V30 20 H 10.790963 6.969228 -2.098601 0
M  V30 21 H 11.988649 5.755576 -2.344698 0
M  V30 22 H 9.574604 4.558933 -11.427461 0
M  V30 23 H 8.094567 3.715000 -11.797854 0
M  V30 24 H 10.166077 6.163269 -4.247195 0
M  V30 25 H 11.814313 5.752966 -4.658406 0
M  V30 26 H 13.134288 9.769302 -3.197533 0
M  V30 27 H 11.487032 9.551885 -2.632290 0
M  V30 28 H 11.938055 9.762749 -5.276560 0
M  V30 29 H 7.434840 4.140352 -9.216831 0
M  V30 30 H 7.392056 5.769301 -8.677671 0
M  V30 31 H 5.907485 4.731145 -11.287415 0
M  V30 32 H 5.804656 6.169301 -10.291698 0
M  V30 33 H 6.258014 6.323646 -11.975741 0
M  V30 34 H 10.067812 4.482692 -9.400883 0
M  V30 35 H 9.296789 4.330580 -7.891666 0
M  V30 36 H 9.240970 4.779174 -13.787663 0
M  V30 37 H 7.613676 5.405770 -13.594804 0
M  V30 38 H 9.000724 6.366481 -13.071780 0
M  V30 39 H 11.681476 9.502305 -7.182000 0
M  V30 40 H 12.984101 7.896113 -1.536886 0
M  V30 41 H 13.621193 7.393338 -3.091665 0
M  V30 42 H 8.215913 6.464003 -10.745103 0
M  V30 END ATOM
M  V30 BEGIN BOND
M  V30 1 1 3 1
M  V30 2 2 6 4
M  V30 3 1 7 5
M  V30 4 1 11 6
M  V30 5 1 11 9
M  V30 6 1 12 2
M  V30 7 1 14 13
M  V30 8 1 15 2
M  V30 9 1 15 9
M  V30 10 1 15 10
M  V30 11 1 16 1
M  V30 12 1 16 5
M  V30 13 1 17 6
M  V30 14 2 17 8
M  V30 15 1 17 14
M  V30 16 1 18 4
M  V30 17 2 18 13
M  V30 18 1 19 3
M  V30 19 2 19 7
M  V30 20 1 19 18
M  V30 21 1 20 1
M  V30 22 1 21 1
M  V30 23 1 22 2
M  V30 24 1 23 2
M  V30 25 1 24 3
M  V30 26 1 25 3
M  V30 27 1 26 5
M  V30 28 1 27 5
M  V30 29 1 28 7
M  V30 30 1 29 9
M  V30 31 1 30 9
M  V30 32 1 31 10
M  V30 33 1 32 10
M  V30 34 1 33 10
M  V30 35 1 34 11
M  V30 36 1 35 11
M  V30 37 1 36 12
M  V30 38 1 37 12
M  V30 39 1 38 12
M  V30 40 1 39 13
M  V30 41 1 40 16
M  V30 42 1 41 16
M  V30 43 1 15 42 CFG=1
M  V30 END BOND
M  V30 END CTAB
M  END
>  <i_epik_Tot_Q>  (1) 
0

>  <i_epik_Tot_abs_Q>  (1) 
2

>  <i_i_glide_confnum>  (1) 
70

>  <i_i_glide_lignum>  (1) 
50

>  <i_i_glide_posenum>  (1) 
324

>  <i_i_glide_rotatable_bonds>  (1) 
5

>  <i_lp_mmshare_version>  (1) 
72125

>  <i_m_source_file_index>  (1) 
29

>  <i_f3d_flags>  (1) 
0

>  <num_sample>  (1) 
100

>  <b_lp_Chiralities_Consistent>  (1) 
1

>  <r_epik_Charging_Adjusted_Penalty>  (1) 
1.2889852773217638

>  <r_epik_Ionization_Penalty>  (1) 
1.2889869126975093

>  <r_epik_Ionization_Penalty_Charging>  (1) 
0.026956894772998535

>  <r_epik_Ionization_Penalty_Neutral>  (1) 
1.2620300179245107

>  <r_epik_State_Penalty>  (1) 
1.2620283825487653

>  <r_glide_ring_energy>  (1) 
0.00030344837722751772

>  <r_i_docking_score>  (1) 
-4.747086275830303

>  <r_i_glide_ecoul>  (1) 
-3.0996535913398846

>  <r_i_glide_eff_state_penalty>  (1) 
1.2620283825487653

>  <r_i_glide_einternal>  (1) 
7.8860290783116778

>  <r_i_glide_emodel>  (1) 
-42.982317681839035

>  <r_i_glide_emodel_strain>  (1) 
2.4861543299820923

>  <r_i_glide_energy>  (1) 
-34.964383224383475

>  <r_i_glide_erotb>  (1) 
1.0375715866235848

>  <r_i_glide_esite>  (1) 
-0.093693722946841779

>  <r_i_glide_evdw>  (1) 
-31.864729633043588

>  <r_i_glide_gscore>  (1) 
-6.009114658379068

>  <r_i_glide_gscore_strain>  (1) 
0

>  <r_i_glide_hbond>  (1) 
-0.0099699469688690409

>  <r_i_glide_ligand_efficiency>  (1) 
-0.24984664609633173

>  <r_i_glide_ligand_efficiency_ln>  (1) 
-1.2034883289875313

>  <r_i_glide_ligand_efficiency_sa>  (1) 
-0.66669120237110002

>  <r_i_glide_lipo>  (1) 
-2.4765732892359411

>  <r_i_glide_metal>  (1) 
-0

>  <r_i_glide_rewards>  (1) 
-2.408264765497838

>  <r_lp_Energy>  (1) 
33.776638999999996

>  <s_epik_cmdline>  (1) 
J2VwaWtfcHl0aG9uJywgJy1waHQnLCAnMS4wJywgJy1waCcsICc3LjQnLCAnLXRuJywgJzgnLCAnLW1hJywgJzUwMCcsICctaW1hZScsICc8aW5maWxlLm1hZT4nLCAnLW9tYWUnLCAnPG91dGZpbGUubWFlPic=

>  <s_epik_input>  (1) 
W0NIMl0xW0NIMl1bQ0gyXVtDSDJdW0NIXT1DMWMoW2NIXVtuSF1jMj1PKW5jMltDSDJdW0NIMl1OKFtDSDNdKVtDSDJdW0NIM10=

>  <s_glide_docking_method>  (1) 
confgen

>  <s_i_glide_gridfile>  (1) 
gpcr_drd2_6luq_protein_autoprepared_prepared

>  <s_lp_Force_Field>  (1) 
S-OPLS

>  <s_lp_Variant>  (1) 
DiffSBDD_28_num_sample_100-4

>  <s_m_source_file>  (1) 
generated__ligand_DiffSBDD_2026-05-06_prepared.sdf

>  <GenAI_Model>  (1) 
DiffSBDD

>  <Protein>  (1) 
generic_title2

$$$$
DiffSBDD_44_num_sample_100
     RDKit          3D

  0  0  0  0  0  0  0  0  0  0999 V3000
M  V30 BEGIN CTAB
M  V30 COUNTS 55 57 0 0 1
M  V30 BEGIN ATOM
M  V30 1 C 8.163650 0.255842 -13.878991 0
M  V30 2 C 7.102542 1.070379 -14.658249 0 CFG=1
M  V30 3 C 10.192392 6.467333 -6.719528 0
M  V30 4 C 11.734323 8.685628 -5.927093 0
M  V30 5 C 11.270789 8.596475 -7.251491 0
M  V30 6 C 9.246433 4.367897 -12.236612 0
M  V30 7 C 7.274989 0.812277 -16.143762 0
M  V30 8 N 5.733235 0.569302 -14.459503 0
M  V30 9 C 9.697740 5.826664 -12.128959 0
M  V30 10 C 9.434839 6.374863 -9.628186 0
M  V30 11 O 9.258261 5.274297 -9.110729 0
M  V30 12 C 11.434435 7.672718 -5.003896 0
M  V30 13 N 12.502460 9.769301 -5.532208 0
M  V30 14 C 6.137268 0.078584 -16.790631 0
M  V30 15 N 10.021892 7.429718 -9.044683 0
M  V30 16 C 7.752849 4.218018 -12.561935 0
M  V30 17 O 7.034845 3.439316 -15.164956 0
M  V30 18 C 9.332891 8.168026 -11.154032 0
M  V30 19 C 5.434221 -0.417016 -15.511836 0
M  V30 20 N 7.525546 2.863168 -13.033063 0
M  V30 21 C 5.320676 0.170089 -13.118466 0
M  V30 22 C 8.985542 6.655265 -11.049931 0 CFG=1
M  V30 23 C 10.180553 8.569293 -9.916866 0
M  V30 24 C 10.498112 7.484987 -7.663989 0
M  V30 25 C 7.215371 2.573737 -14.305304 0
M  V30 26 C 10.664733 6.569302 -5.397597 0
M  V30 27 O 8.277079 1.162503 -16.769639 0
M  V30 28 H 9.111088 0.777941 -13.891655 0
M  V30 29 H 7.930310 0.149906 -12.821252 0
M  V30 30 H 8.329049 -0.730019 -14.306659 0
M  V30 31 H 9.595757 5.620170 -6.986565 0
M  V30 32 H 11.512800 9.378766 -7.952197 0
M  V30 33 H 9.834828 3.904286 -13.028682 0
M  V30 34 H 9.485045 3.816553 -11.326656 0
M  V30 35 H 9.525784 6.301730 -13.091671 0
M  V30 36 H 10.775096 5.865368 -11.976650 0
M  V30 37 H 11.795000 7.742191 -3.987855 0
M  V30 38 H 12.968407 9.769258 -4.636454 0
M  V30 39 H 12.857241 10.420003 -6.217161 0
M  V30 40 H 5.520377 0.776559 -17.356595 0
M  V30 41 H 6.473474 -0.733038 -17.435387 0
M  V30 42 H 7.151594 4.381420 -11.666746 0
M  V30 43 H 7.439597 4.970900 -13.287558 0
M  V30 44 H 9.834839 8.418777 -12.087605 0
M  V30 45 H 8.404170 8.741358 -11.149844 0
M  V30 46 H 4.358376 -0.526015 -15.654735 0
M  V30 47 H 5.834800 -1.392370 -15.234197 0
M  V30 48 H 7.657481 2.107775 -12.376777 0
M  V30 49 H 4.275847 -0.140960 -13.118915 0
M  V30 50 H 5.906189 -0.655931 -12.729467 0
M  V30 51 H 5.434839 0.993881 -12.418767 0
M  V30 52 H 7.903696 6.534905 -11.111190 0
M  V30 53 H 9.787382 9.477094 -9.472279 0
M  V30 54 H 11.230251 8.704354 -10.182137 0
M  V30 55 H 10.431279 5.794740 -4.682060 0
M  V30 END ATOM
M  V30 BEGIN BOND
M  V30 1 1 2 1 CFG=1
M  V30 2 2 5 4
M  V30 3 1 7 2
M  V30 4 1 8 2
M  V30 5 1 9 6
M  V30 6 2 11 10
M  V30 7 1 12 4
M  V30 8 1 13 4
M  V30 9 1 14 7
M  V30 10 1 15 10
M  V30 11 1 16 6
M  V30 12 1 19 8
M  V30 13 1 19 14
M  V30 14 1 20 16
M  V30 15 1 21 8
M  V30 16 1 22 9
M  V30 17 1 22 10
M  V30 18 1 22 18
M  V30 19 1 23 15
M  V30 20 1 23 18
M  V30 21 2 24 3
M  V30 22 1 24 5
M  V30 23 1 24 15
M  V30 24 1 25 2
M  V30 25 2 25 17
M  V30 26 1 25 20
M  V30 27 1 26 3
M  V30 28 2 26 12
M  V30 29 2 27 7
M  V30 30 1 28 1
M  V30 31 1 29 1
M  V30 32 1 30 1
M  V30 33 1 31 3
M  V30 34 1 32 5
M  V30 35 1 33 6
M  V30 36 1 34 6
M  V30 37 1 35 9
M  V30 38 1 36 9
M  V30 39 1 37 12
M  V30 40 1 38 13
M  V30 41 1 39 13
M  V30 42 1 40 14
M  V30 43 1 41 14
M  V30 44 1 42 16
M  V30 45 1 43 16
M  V30 46 1 44 18
M  V30 47 1 45 18
M  V30 48 1 46 19
M  V30 49 1 47 19
M  V30 50 1 48 20
M  V30 51 1 49 21
M  V30 52 1 50 21
M  V30 53 1 51 21
M  V30 54 1 22 52 CFG=1
M  V30 55 1 53 23
M  V30 56 1 54 23
M  V30 57 1 55 26
M  V30 END BOND
M  V30 END CTAB
M  END
>  <i_epik_Tot_Q>  (1) 
0

>  <i_epik_Tot_abs_Q>  (1) 
0

>  <i_i_glide_confnum>  (1) 
151

>  <i_i_glide_lignum>  (1) 
76

>  <i_i_glide_posenum>  (1) 
128

>  <i_i_glide_rotatable_bonds>  (1) 
7

>  <i_lp_mmshare_version>  (1) 
72125

>  <i_m_source_file_index>  (1) 
45

>  <i_f3d_flags>  (1) 
0

>  <num_sample>  (1) 
100

>  <b_lp_Chiralities_Consistent>  (1) 
1

>  <r_epik_Charging_Adjusted_Penalty>  (1) 
0.38370982414574223

>  <r_epik_Ionization_Penalty>  (1) 
0.3841777034394574

>  <r_epik_Ionization_Penalty_Charging>  (1) 
0

>  <r_epik_Ionization_Penalty_Neutral>  (1) 
0.3841777034394574

>  <r_epik_State_Penalty>  (1) 
0.38370982414574223

>  <r_glide_ring_energy>  (1) 
0

>  <r_i_docking_score>  (1) 
-4.7421082665181862

>  <r_i_glide_ecoul>  (1) 
-1.6226650549017121

>  <r_i_glide_eff_state_penalty>  (1) 
0.38370982414574223

>  <r_i_glide_einternal>  (1) 
6.1578112128941029

>  <r_i_glide_emodel>  (1) 
-46.76173900995537

>  <r_i_glide_emodel_strain>  (1) 
0.46416638247855246

>  <r_i_glide_energy>  (1) 
-39.027458158032182

>  <r_i_glide_erotb>  (1) 
0.97453214498294238

>  <r_i_glide_esite>  (1) 
-0.18334001354206741

>  <r_i_glide_evdw>  (1) 
-37.404793103130473

>  <r_i_glide_gscore>  (1) 
-5.1258180906639286

>  <r_i_glide_gscore_strain>  (1) 
0

>  <r_i_glide_hbond>  (1) 
0

>  <r_i_glide_ligand_efficiency>  (1) 
-0.17563363950067357

>  <r_i_glide_ligand_efficiency_ln>  (1) 
-1.1038846246805796

>  <r_i_glide_ligand_efficiency_sa>  (1) 
-0.52690091850202081

>  <r_i_glide_lipo>  (1) 
-1.998070485601575

>  <r_i_glide_metal>  (1) 
-0

>  <r_i_glide_rewards>  (1) 
-1.8053003231114471

>  <r_lp_Energy>  (1) 
22.834814999999999

>  <r_lp_tautomer_probability>  (1) 
0.99995000000000001

>  <s_epik_cmdline>  (1) 
J2VwaWtfcHl0aG9uJywgJy1waHQnLCAnMS4wJywgJy1waCcsICc3LjQnLCAnLXRuJywgJzgnLCAnLW1hJywgJzUwMCcsICctaW1hZScsICc8aW5maWxlLm1hZT4nLCAnLW9tYWUnLCAnPG91dGZpbGUubWFlPic=

>  <s_epik_input>  (1) 
W0NIM11OMVtDSDJdW0NIMl1DKD1PKVtDQEBdMShbQ0gzXSlDKD1PKVtOSF1bQ0gyXVtDSDJdW0NIMl1bQ0BASF0yW0NIMl1bQ0gyXU4oQzI9TyljKFtjSF1bY0hdW2NIXTMpW2NIXWMzW05IMl0=

>  <s_glide_docking_method>  (1) 
confgen

>  <s_i_glide_gridfile>  (1) 
gpcr_drd2_6luq_protein_autoprepared_prepared

>  <s_lp_Force_Field>  (1) 
S-OPLS

>  <s_lp_Variant>  (1) 
DiffSBDD_44_num_sample_100-1

>  <s_m_source_file>  (1) 
generated__ligand_DiffSBDD_2026-05-06_prepared.sdf

>  <GenAI_Model>  (1) 
DiffSBDD

>  <Protein>  (1) 
generic_title2

$$$$
DiffSBDD_74_num_sample_100
     RDKit          3D

  0  0  0  0  0  0  0  0  0  0999 V3000
M  V30 BEGIN CTAB
M  V30 COUNTS 50 51 0 0 1
M  V30 BEGIN ATOM
M  V30 1 C 12.432934 4.527411 -17.015248 0
M  V30 2 C 9.053655 5.255536 -11.512739 0
M  V30 3 F 5.834845 5.369599 -15.749500 0
M  V30 4 C 12.945517 7.157546 -18.345159 0 CFG=1
M  V30 5 O 7.520892 7.965152 -11.891667 0
M  V30 6 C 8.083703 4.803676 -13.822498 0
M  V30 7 C 10.110852 5.144076 -17.789679 0
M  V30 8 C 12.145465 6.009185 -19.004387 0 CFG=2
M  V30 9 F 14.629791 7.291615 -20.015599 0
M  V30 10 C 13.227081 5.627018 -16.284547 0
M  V30 11 F 12.402807 6.318093 -15.494715 0
M  V30 12 F 11.275103 6.485379 -19.896641 0
M  V30 13 C 13.910303 6.594701 -17.273223 0
M  V30 14 C 8.135988 5.363863 -15.264596 0 CFG=2
M  V30 15 C 8.327554 5.868406 -12.728137 0 CFG=1
M  V30 16 O 6.352485 6.010482 -11.315087 0
M  V30 17 C 13.715545 8.014802 -19.368176 0
M  V30 18 C 7.071313 6.693127 -12.319373 0
M  V30 19 O 9.270113 5.712311 -18.488686 0
M  V30 20 C 6.558071 7.369301 -14.785411 0
M  V30 21 F 14.163376 5.062469 -15.521906 0
M  V30 22 N 11.516347 5.203838 -17.944024 0
M  V30 23 C 6.892403 6.169224 -15.681439 0 CFG=2
M  V30 24 C 6.015912 6.954340 -13.410404 0
M  V30 25 O 9.797311 4.358288 -16.733496 0
M  V30 26 F 12.891408 8.569304 -20.254375 0
M  V30 27 C 8.447083 4.253974 -16.293279 0
M  V30 28 H 11.990308 3.844892 -16.291657 0
M  V30 29 H 13.115518 3.910885 -17.601174 0
M  V30 30 H 8.472137 4.454983 -11.054393 0
M  V30 31 H 10.014866 4.833143 -11.807523 0
M  V30 32 H 9.249755 6.008685 -10.748537 0
M  V30 33 H 12.234850 7.809488 -17.836799 0
M  V30 34 H 7.393170 8.029957 -10.938458 0
M  V30 35 H 7.154743 4.261782 -13.639483 0
M  V30 36 H 8.875301 4.057783 -13.739300 0
M  V30 37 H 12.817070 5.366819 -19.575153 0
M  V30 38 H 14.376156 7.413963 -16.725337 0
M  V30 39 H 14.721698 6.062849 -17.771605 0
M  V30 40 H 8.966441 6.064303 -15.314796 0
M  V30 41 H 9.048286 6.569329 -13.144342 0
M  V30 42 H 6.633909 6.354079 -10.470299 0
M  V30 43 H 14.237586 8.837160 -18.877017 0
M  V30 44 H 5.787494 7.955414 -15.287475 0
M  V30 45 H 7.416965 8.033544 -14.683157 0
M  V30 46 H 7.034840 6.534674 -16.699726 0
M  V30 47 H 5.379106 6.076696 -13.526630 0
M  V30 48 H 5.334635 7.728130 -13.052025 0
M  V30 49 H 8.300967 3.270684 -15.846790 0
M  V30 50 H 7.762702 4.295074 -17.142230 0
M  V30 END ATOM
M  V30 BEGIN BOND
M  V30 1 1 8 4
M  V30 2 1 10 1
M  V30 3 1 11 10
M  V30 4 1 12 8
M  V30 5 1 13 4
M  V30 6 1 13 10
M  V30 7 1 14 6
M  V30 8 1 15 2
M  V30 9 1 15 6
M  V30 10 1 17 4
M  V30 11 1 17 9
M  V30 12 1 18 5
M  V30 13 1 18 15
M  V30 14 1 18 16
M  V30 15 2 19 7
M  V30 16 1 21 10
M  V30 17 1 22 1
M  V30 18 1 22 7
M  V30 19 1 22 8
M  V30 20 1 23 3
M  V30 21 1 23 14
M  V30 22 1 23 20
M  V30 23 1 24 18
M  V30 24 1 24 20
M  V30 25 1 25 7
M  V30 26 1 26 17
M  V30 27 1 27 14
M  V30 28 1 27 25
M  V30 29 1 28 1
M  V30 30 1 29 1
M  V30 31 1 30 2
M  V30 32 1 31 2
M  V30 33 1 32 2
M  V30 34 1 4 33 CFG=1
M  V30 35 1 34 5
M  V30 36 1 35 6
M  V30 37 1 36 6
M  V30 38 1 8 37 CFG=3
M  V30 39 1 38 13
M  V30 40 1 39 13
M  V30 41 1 14 40 CFG=1
M  V30 42 1 15 41 CFG=3
M  V30 43 1 42 16
M  V30 44 1 43 17
M  V30 45 1 44 20
M  V30 46 1 45 20
M  V30 47 1 23 46 CFG=3
M  V30 48 1 47 24
M  V30 49 1 48 24
M  V30 50 1 49 27
M  V30 51 1 50 27
M  V30 END BOND
M  V30 END CTAB
M  END
>  <i_epik_Tot_Q>  (1) 
0

>  <i_epik_Tot_abs_Q>  (1) 
0

>  <i_i_glide_confnum>  (1) 
54

>  <i_i_glide_lignum>  (1) 
149

>  <i_i_glide_posenum>  (1) 
339

>  <i_i_glide_rotatable_bonds>  (1) 
7

>  <i_lp_mmshare_version>  (1) 
72125

>  <i_m_source_file_index>  (1) 
75

>  <i_f3d_flags>  (1) 
0

>  <num_sample>  (1) 
100

>  <b_lp_Chiralities_Consistent>  (1) 
1

>  <r_epik_Charging_Adjusted_Penalty>  (1) 
0

>  <r_epik_Ionization_Penalty>  (1) 
3.1339630279600532e-07

>  <r_epik_Ionization_Penalty_Charging>  (1) 
0

>  <r_epik_Ionization_Penalty_Neutral>  (1) 
3.1339630279600532e-07

>  <r_epik_State_Penalty>  (1) 
-0

>  <r_glide_ring_energy>  (1) 
0.018491767476775479

>  <r_i_docking_score>  (1) 
-4.7330196499014772

>  <r_i_glide_ecoul>  (1) 
-9.2528944746599393

>  <r_i_glide_eff_state_penalty>  (1) 
-0

>  <r_i_glide_einternal>  (1) 
5.3149510315132886

>  <r_i_glide_emodel>  (1) 
-34.382509389348598

>  <r_i_glide_emodel_strain>  (1) 
3.2056250443404792

>  <r_i_glide_energy>  (1) 
-31.066256266567731

>  <r_i_glide_erotb>  (1) 
0.47417469053287281

>  <r_i_glide_esite>  (1) 
-0.076881841856779598

>  <r_i_glide_evdw>  (1) 
-21.813361791907791

>  <r_i_glide_gscore>  (1) 
-4.7330196499014772

>  <r_i_glide_gscore_strain>  (1) 
0

>  <r_i_glide_hbond>  (1) 
-0.2954616483244662

>  <r_i_glide_ligand_efficiency>  (1) 
-0.17529702407042508

>  <r_i_glide_ligand_efficiency_ln>  (1) 
-1.1017689445697652

>  <r_i_glide_ligand_efficiency_sa>  (1) 
-0.52589107221127529

>  <r_i_glide_lipo>  (1) 
-1.037463370301918

>  <r_i_glide_metal>  (1) 
-0

>  <r_i_glide_rewards>  (1) 
-1.3187852191568052

>  <r_lp_Energy>  (1) 
27.319579999999998

>  <r_lp_tautomer_probability>  (1) 
1

>  <s_epik_Chemistry_Notes>  (1) 
This compound has an ester and may undergo hydrolysis at high or low pH.

>  <s_epik_cmdline>  (1) 
J2VwaWtfcHl0aG9uJywgJy1waHQnLCAnMS4wJywgJy1waCcsICc3LjQnLCAnLXRuJywgJzgnLCAnLW1hJywgJzUwMCcsICctaW1hZScsICc8aW5maWxlLm1hZT4nLCAnLW9tYWUnLCAnPG91dGZpbGUubWFlPic=

>  <s_epik_input>  (1) 
RltDSF0oRilbQ0BIXShbQ0gyXTEpW0NAQEhdKEYpTihbQ0gyXUMxKEYpRilDKD1PKU9bQ0gyXVtDQEBIXShbQ0BASF0oRilbQ0gyXVtDSDJdMilbQ0gyXVtDQEhdKFtDSDNdKUMyKFtPSF0pW09IXQ==

>  <s_glide_docking_method>  (1) 
confgen

>  <s_i_glide_gridfile>  (1) 
gpcr_drd2_6luq_protein_autoprepared_prepared

>  <s_lp_Force_Field>  (1) 
S-OPLS

>  <s_lp_Variant>  (1) 
DiffSBDD_74_num_sample_100-2

>  <s_m_source_file>  (1) 
generated__ligand_DiffSBDD_2026-05-06_prepared.sdf

>  <GenAI_Model>  (1) 
DiffSBDD

>  <Protein>  (1) 
generic_title2

$$$$
DiffSBDD_15_num_sample_100
     RDKit          3D

  0  0  0  0  0  0  0  0  0  0999 V3000
M  V30 BEGIN CTAB
M  V30 COUNTS 48 51 0 0 1
M  V30 BEGIN ATOM
M  V30 1 C 5.997428 6.086648 -15.344067 0
M  V30 2 C 7.932307 5.656945 -19.506780 0
M  V30 3 C 5.571502 6.755020 -17.674453 0
M  V30 4 C 9.109384 6.387861 -12.215152 0
M  V30 5 C 8.008627 4.985542 -14.569413 0
M  V30 6 C 6.751058 5.545729 -14.291703 0
M  V30 7 C 6.510012 5.881668 -19.843081 0
M  V30 8 C 6.172345 5.551158 -12.910354 0
M  V30 9 C 9.470536 7.552583 -11.269471 0
M  V30 10 C 5.600791 6.695646 -19.009554 0
M  V30 11 C 9.799329 5.420031 -8.032123 0
M  V30 12 C 8.509750 4.974443 -15.876598 0
M  V30 13 C 10.047496 7.042981 -9.937165 0 CFG=2
M  V30 14 C 6.467996 6.092316 -16.680856 0
M  V30 15 C 8.451138 5.473222 -18.287905 0
M  V30 16 F 11.368541 8.918823 -9.486065 0
M  V30 17 C 9.159352 5.954747 -9.302497 0 CFG=1
M  V30 18 N 8.229886 5.431270 -11.534310 0
M  V30 19 C 10.201795 6.576133 -7.102081 0
M  V30 20 C 6.848090 5.445758 -11.731495 0
M  V30 21 F 9.434603 8.867005 -8.559295 0
M  V30 22 C 7.771659 5.512351 -16.958196 0
M  V30 23 O 11.068476 7.476813 -7.784911 0
M  V30 24 C 10.471593 8.117892 -8.911172 0
M  V30 25 C 8.798572 4.865802 -10.318628 0
M  V30 26 H 5.035948 6.517967 -15.126509 0
M  V30 27 H 8.596664 5.585631 -20.356074 0
M  V30 28 H 4.791703 7.361774 -17.237081 0
M  V30 29 H 10.011839 5.880875 -12.557353 0
M  V30 30 H 8.636812 6.842063 -13.082560 0
M  V30 31 H 8.591626 4.541509 -13.782181 0
M  V30 32 H 6.529168 6.386269 -20.809945 0
M  V30 33 H 6.037106 4.918700 -20.033707 0
M  V30 34 H 5.096995 5.625696 -12.863353 0
M  V30 35 H 10.204047 8.184066 -11.765084 0
M  V30 36 H 8.596579 8.178407 -11.098821 0
M  V30 37 H 4.854546 7.251976 -19.557378 0
M  V30 38 H 10.662724 4.812137 -8.286215 0
M  V30 39 H 9.089368 4.768387 -7.522712 0
M  V30 40 H 9.482644 4.542394 -16.061420 0
M  V30 41 H 10.958660 6.569213 -10.229326 0
M  V30 42 H 9.509840 5.261948 -18.242632 0
M  V30 43 H 8.232976 6.373482 -8.953937 0
M  V30 44 H 10.723440 6.188029 -6.227058 0
M  V30 45 H 9.318089 7.101718 -6.735890 0
M  V30 46 H 6.300190 5.381630 -10.800334 0
M  V30 47 H 8.085089 4.170167 -9.878467 0
M  V30 48 H 9.680473 4.280153 -10.583158 0
M  V30 END ATOM
M  V30 BEGIN BOND
M  V30 1 2 6 1
M  V30 2 1 6 5
M  V30 3 1 7 2
M  V30 4 1 8 6
M  V30 5 1 9 4
M  V30 6 2 10 3
M  V30 7 1 10 7
M  V30 8 2 12 5
M  V30 9 1 13 9
M  V30 10 1 14 1
M  V30 11 1 14 3
M  V30 12 2 15 2
M  V30 13 1 17 11
M  V30 14 1 17 13
M  V30 15 1 18 4
M  V30 16 1 19 11
M  V30 17 2 20 8
M  V30 18 1 20 18
M  V30 19 1 22 12
M  V30 20 2 22 14
M  V30 21 1 22 15
M  V30 22 1 23 19
M  V30 23 1 24 13
M  V30 24 1 24 16
M  V30 25 1 24 21
M  V30 26 1 24 23
M  V30 27 1 25 17
M  V30 28 1 25 18
M  V30 29 1 26 1
M  V30 30 1 27 2
M  V30 31 1 28 3
M  V30 32 1 29 4
M  V30 33 1 30 4
M  V30 34 1 31 5
M  V30 35 1 32 7
M  V30 36 1 33 7
M  V30 37 1 34 8
M  V30 38 1 35 9
M  V30 39 1 36 9
M  V30 40 1 37 10
M  V30 41 1 38 11
M  V30 42 1 39 11
M  V30 43 1 40 12
M  V30 44 1 13 41 CFG=3
M  V30 45 1 42 15
M  V30 46 1 17 43 CFG=1
M  V30 47 1 44 19
M  V30 48 1 45 19
M  V30 49 1 46 20
M  V30 50 1 47 25
M  V30 51 1 48 25
M  V30 END BOND
M  V30 END CTAB
M  END
>  <i_epik_Tot_Q>  (1) 
0

>  <i_epik_Tot_abs_Q>  (1) 
0

>  <i_i_glide_confnum>  (1) 
8

>  <i_i_glide_lignum>  (1) 
25

>  <i_i_glide_posenum>  (1) 
327

>  <i_i_glide_rotatable_bonds>  (1) 
2

>  <i_lp_mmshare_version>  (1) 
72125

>  <i_m_source_file_index>  (1) 
16

>  <i_f3d_flags>  (1) 
0

>  <num_sample>  (1) 
100

>  <b_lp_Chiralities_Consistent>  (1) 
1

>  <r_epik_Charging_Adjusted_Penalty>  (1) 
0.41067983895260396

>  <r_epik_Ionization_Penalty>  (1) 
0.00043588865487499098

>  <r_epik_Ionization_Penalty_Charging>  (1) 
0

>  <r_epik_Ionization_Penalty_Neutral>  (1) 
0.00043588865487499098

>  <r_epik_State_Penalty>  (1) 
0.41067983895260396

>  <r_glide_ring_energy>  (1) 
0.0078002469909557517

>  <r_i_docking_score>  (1) 
-4.719431463165261

>  <r_i_glide_ecoul>  (1) 
-0.69612620659925173

>  <r_i_glide_eff_state_penalty>  (1) 
0.41067983895260396

>  <r_i_glide_einternal>  (1) 
5.788026385473966

>  <r_i_glide_emodel>  (1) 
-30.855704300153711

>  <r_i_glide_emodel_strain>  (1) 
0

>  <r_i_glide_energy>  (1) 
-26.334635175488078

>  <r_i_glide_erotb>  (1) 
0.32177656458331499

>  <r_i_glide_esite>  (1) 
-0.12230815156304325

>  <r_i_glide_evdw>  (1) 
-25.638508968888825

>  <r_i_glide_gscore>  (1) 
-5.1301113021178653

>  <r_i_glide_gscore_strain>  (1) 
0

>  <r_i_glide_hbond>  (1) 
0

>  <r_i_glide_ligand_efficiency>  (1) 
-0.18877725852661043

>  <r_i_glide_ligand_efficiency_ln>  (1) 
-1.1186466867184215

>  <r_i_glide_ligand_efficiency_sa>  (1) 
-0.55198805250300498

>  <r_i_glide_lipo>  (1) 
-1.751463938368446

>  <r_i_glide_metal>  (1) 
-0

>  <r_i_glide_rewards>  (1) 
-2.1917713973353621

>  <r_lp_Energy>  (1) 
28.753394999999998

>  <r_lp_tautomer_probability>  (1) 
0.5

>  <s_epik_cmdline>  (1) 
J2VwaWtfcHl0aG9uJywgJy1waHQnLCAnMS4wJywgJy1waCcsICc3LjQnLCAnLXRuJywgJzgnLCAnLW1hJywgJzUwMCcsICctaW1hZScsICc8aW5maWxlLm1hZT4nLCAnLW9tYWUnLCAnPG91dGZpbGUubWFlPic=

>  <s_epik_input>  (1) 
W0NIXTE9W0NIXVtDSDJdW0NIXT1bQ0hdYyhjMTIpW2NIXVtjSF1jKFtjSF0yKS9bQ0hdPVtDSF1cTihbQ0gyXVtDSDJdMylbQ0gyXVtDQEhdKFtDQEBIXTM0KVtDSDJdW0NIMl1PQzQoRilG

>  <s_glide_docking_method>  (1) 
confgen

>  <s_i_glide_gridfile>  (1) 
gpcr_drd2_6luq_protein_autoprepared_prepared

>  <s_lp_Force_Field>  (1) 
S-OPLS

>  <s_lp_Variant>  (1) 
DiffSBDD_15_num_sample_100-2

>  <s_m_source_file>  (1) 
generated__ligand_DiffSBDD_2026-05-06_prepared.sdf

>  <GenAI_Model>  (1) 
DiffSBDD

>  <Protein>  (1) 
generic_title2

$$$$
DiffSBDD_70_num_sample_100
     RDKit          3D

  0  0  0  0  0  0  0  0  0  0999 V3000
M  V30 BEGIN CTAB
M  V30 COUNTS 76 78 0 0 1
M  V30 BEGIN ATOM
M  V30 1 C 6.430682 5.763080 -18.214166 0 CFG=1
M  V30 2 C 5.063560 7.397173 -19.319867 0
M  V30 3 C 7.942212 4.425437 -16.909927 0 CFG=1
M  V30 4 C 8.113415 6.113028 -12.504282 0
M  V30 5 C 5.650919 3.484471 -13.257124 0
M  V30 6 Cl 6.234953 1.807262 -13.467601 0
M  V30 7 C 9.041423 6.508558 -11.341798 0
M  V30 8 C 4.943592 7.680126 -17.825471 0
M  V30 9 C 10.833876 6.967881 -9.158034 0
M  V30 10 C 5.714088 6.572160 -17.116608 0
M  V30 11 C 9.935000 5.713601 -9.080373 0 CFG=1
M  V30 12 C 9.056034 3.508154 -17.431160 0
M  V30 13 C 8.312116 5.063046 -15.546370 0
M  V30 14 C 9.622312 8.703091 -6.606865 0
M  V30 15 C 8.566538 4.788198 -13.159872 0 CFG=1
M  V30 16 C 11.497650 7.356802 -7.803663 0 CFG=2
M  V30 17 O 6.447745 6.782773 -21.873326 0
M  V30 18 O 9.034804 8.969290 -7.847746 0
M  V30 19 C 10.487815 7.446211 -6.639554 0 CFG=2
M  V30 20 C 8.668067 3.713485 -12.076102 0
M  V30 21 C 6.388969 6.643081 -19.473735 0 CFG=2
M  V30 22 C 6.358285 4.452017 -14.220612 0
M  V30 23 C 8.960266 5.809403 -7.911888 0
M  V30 24 O 7.781680 5.456346 -17.877803 0
M  V30 25 C 9.665220 6.158487 -6.594610 0
M  V30 26 C 6.492028 5.866251 -20.804030 0
M  V30 27 C 9.657616 4.169702 -11.015507 0
M  V30 28 O 11.835933 9.369894 -8.975800 0
M  V30 29 O 7.673557 5.101823 -20.830264 0
M  V30 30 F 11.183926 7.466100 -5.502104 0
M  V30 31 N 9.184024 5.405243 -10.345285 0 CFG=2 CHG=1
M  V30 32 N 7.825224 4.356741 -14.352823 0
M  V30 33 O 12.309543 8.523608 -7.888915 0
M  V30 34 H 5.865830 4.851870 -18.422120 0
M  V30 35 H 4.234947 6.763092 -19.637025 0
M  V30 36 H 5.032916 8.309922 -19.916369 0
M  V30 37 H 7.041691 3.815570 -16.845789 0
M  V30 38 H 7.098894 6.028716 -12.113625 0
M  V30 39 H 8.096168 6.915802 -13.239819 0
M  V30 40 H 5.744520 3.776879 -12.214399 0
M  V30 41 H 4.582049 3.478647 -13.471867 0
M  V30 42 H 8.634796 7.400116 -10.869071 0
M  V30 43 H 10.020564 6.773277 -11.745884 0
M  V30 44 H 3.905363 7.753664 -17.498960 0
M  V30 45 H 5.434537 8.621703 -17.592821 0
M  V30 46 H 10.203053 7.775042 -9.503972 0
M  V30 47 H 11.605017 6.913064 -9.921787 0
M  V30 48 H 5.055290 5.939155 -16.523381 0
M  V30 49 H 6.414995 7.049613 -16.436506 0
M  V30 50 H 10.559037 4.873594 -8.782835 0
M  V30 51 H 9.243230 2.687775 -16.737368 0
M  V30 52 H 8.781032 3.073844 -18.393014 0
M  V30 53 H 9.991658 4.049052 -17.572496 0
M  V30 54 H 7.972487 6.094083 -15.497846 0
M  V30 55 H 9.400780 5.141719 -15.520357 0
M  V30 56 H 8.813426 8.596896 -5.891583 0
M  V30 57 H 10.234687 9.558013 -6.314197 0
M  V30 58 H 9.599712 4.944390 -13.475994 0
M  V30 59 H 12.180271 6.569452 -7.491413 0
M  V30 60 H 6.416867 6.292669 -22.681182 0
M  V30 61 H 8.357376 8.329232 -8.041478 0
M  V30 62 H 7.715670 3.541303 -11.594173 0
M  V30 63 H 8.996142 2.766594 -12.509160 0
M  V30 64 H 7.201859 7.369188 -19.412405 0
M  V30 65 H 6.057558 5.476829 -14.002294 0
M  V30 66 H 5.910172 4.251920 -15.179935 0
M  V30 67 H 8.234803 6.568928 -8.135207 0
M  V30 68 H 8.416019 4.870373 -7.802805 0
M  V30 69 H 8.948758 6.169786 -5.776684 0
M  V30 70 H 10.372551 5.369316 -6.375071 0
M  V30 71 H 5.648651 5.182428 -20.904561 0
M  V30 72 H 10.594334 4.370289 -11.532831 0
M  V30 73 H 9.834709 3.374563 -10.291987 0
M  V30 74 H 12.512985 9.235699 -9.623456 0
M  V30 75 H 8.336533 5.564532 -20.338802 0
M  V30 76 H 8.243211 5.205638 -10.033869 0
M  V30 END ATOM
M  V30 BEGIN BOND
M  V30 1 1 6 5
M  V30 2 1 7 4
M  V30 3 1 8 2
M  V30 4 1 10 1
M  V30 5 1 10 8
M  V30 6 1 11 9
M  V30 7 1 12 3
M  V30 8 1 13 3
M  V30 9 1 15 4
M  V30 10 1 16 9
M  V30 11 1 18 14
M  V30 12 1 19 14
M  V30 13 1 19 16
M  V30 14 1 20 15
M  V30 15 1 21 1
M  V30 16 1 21 2
M  V30 17 1 22 5
M  V30 18 1 23 11
M  V30 19 1 24 1
M  V30 20 1 24 3
M  V30 21 1 25 19
M  V30 22 1 25 23
M  V30 23 1 26 17
M  V30 24 1 26 21
M  V30 25 1 27 20
M  V30 26 1 29 26
M  V30 27 1 19 30 CFG=1
M  V30 28 1 31 7
M  V30 29 1 31 11
M  V30 30 1 31 27
M  V30 31 1 32 13
M  V30 32 1 32 15
M  V30 33 1 32 22
M  V30 34 1 33 16
M  V30 35 1 33 28
M  V30 36 1 1 34 CFG=3
M  V30 37 1 35 2
M  V30 38 1 36 2
M  V30 39 1 3 37 CFG=1
M  V30 40 1 38 4
M  V30 41 1 39 4
M  V30 42 1 40 5
M  V30 43 1 41 5
M  V30 44 1 42 7
M  V30 45 1 43 7
M  V30 46 1 44 8
M  V30 47 1 45 8
M  V30 48 1 46 9
M  V30 49 1 47 9
M  V30 50 1 48 10
M  V30 51 1 49 10
M  V30 52 1 11 50 CFG=1
M  V30 53 1 51 12
M  V30 54 1 52 12
M  V30 55 1 53 12
M  V30 56 1 54 13
M  V30 57 1 55 13
M  V30 58 1 56 14
M  V30 59 1 57 14
M  V30 60 1 15 58 CFG=3
M  V30 61 1 16 59 CFG=1
M  V30 62 1 60 17
M  V30 63 1 61 18
M  V30 64 1 62 20
M  V30 65 1 63 20
M  V30 66 1 21 64 CFG=1
M  V30 67 1 65 22
M  V30 68 1 66 22
M  V30 69 1 67 23
M  V30 70 1 68 23
M  V30 71 1 69 25
M  V30 72 1 70 25
M  V30 73 1 71 26
M  V30 74 1 72 27
M  V30 75 1 73 27
M  V30 76 1 74 28
M  V30 77 1 75 29
M  V30 78 1 31 76 CFG=1
M  V30 END BOND
M  V30 END CTAB
M  END
>  <i_epik_Tot_Q>  (1) 
1

>  <i_epik_Tot_abs_Q>  (1) 
1

>  <i_i_glide_confnum>  (1) 
701

>  <i_i_glide_lignum>  (1) 
142

>  <i_i_glide_posenum>  (1) 
29

>  <i_i_glide_rotatable_bonds>  (1) 
15

>  <i_lp_mmshare_version>  (1) 
72125

>  <i_m_source_file_index>  (1) 
71

>  <i_f3d_flags>  (1) 
0

>  <num_sample>  (1) 
100

>  <b_lp_Chiralities_Consistent>  (1) 
1

>  <r_epik_Charging_Adjusted_Penalty>  (1) 
0.025762522161214964

>  <r_epik_Ionization_Penalty>  (1) 
0.015537266588199847

>  <r_epik_Ionization_Penalty_Charging>  (1) 
0.0050933563181465155

>  <r_epik_Ionization_Penalty_Neutral>  (1) 
0.010443910270053331

>  <r_epik_State_Penalty>  (1) 
0.020669165843068448

>  <r_glide_ring_energy>  (1) 
0

>  <r_i_docking_score>  (1) 
-4.7089029364146713

>  <r_i_glide_ecoul>  (1) 
-6.681696735971455

>  <r_i_glide_eff_state_penalty>  (1) 
0.020669165843068448

>  <r_i_glide_einternal>  (1) 
27.708461545184932

>  <r_i_glide_emodel>  (1) 
-22.512321354963454

>  <r_i_glide_emodel_strain>  (1) 
2.7815674719238501

>  <r_i_glide_energy>  (1) 
-27.751546040530087

>  <r_i_glide_erotb>  (1) 
0.82250602570520104

>  <r_i_glide_esite>  (1) 
-0.01537985950065994

>  <r_i_glide_evdw>  (1) 
-21.06984930455863

>  <r_i_glide_gscore>  (1) 
-4.7295721022577402

>  <r_i_glide_gscore_strain>  (1) 
0

>  <r_i_glide_hbond>  (1) 
0

>  <r_i_glide_ligand_efficiency>  (1) 
-0.14269402837620215

>  <r_i_glide_ligand_efficiency_ln>  (1) 
-1.0472356316640823

>  <r_i_glide_ligand_efficiency_sa>  (1) 
-0.45769599470206707

>  <r_i_glide_lipo>  (1) 
-2.4237890111753906

>  <r_i_glide_metal>  (1) 
-0

>  <r_i_glide_rewards>  (1) 
-1.0571622816632427

>  <r_lp_Energy>  (1) 
60.521072999999994

>  <s_epik_Chemistry_Notes>  (1) 
This compound contains an acetal/aminal-like group ( X-CH(R)-Y where X, Y are N, S, or O) that may be acid/base labile, releasing an aldehyde.

>  <s_epik_cmdline>  (1) 
J2VwaWtfcHl0aG9uJywgJy1waHQnLCAnMS4wJywgJy1waCcsICc3LjQnLCAnLXRuJywgJzgnLCAnLW1hJywgJzUwMCcsICctaW1hZScsICc8aW5maWxlLm1hZT4nLCAnLW9tYWUnLCAnPG91dGZpbGUubWFlPic=

>  <s_epik_input>  (1) 
W09IXVtDSF0oW09IXSlbQ0BIXTFbQ0gyXVtDSDJdW0NIMl1bQ0BASF0xT1tDQEBIXShbQ0gzXSlbQ0gyXU4oW0NIMl1bQ0gyXUNsKVtDSF0yW0NIMl1bQ0gyXU4oW0NIMl1bQ0gyXTIpW0NASF0oW0NIMl1bQ0gyXTMpW0NIMl1bQ0BASF0oT1tPSF0pW0NAQF0zKEYpW0NIMl1bT0hd

>  <s_glide_docking_method>  (1) 
confgen

>  <s_i_glide_gridfile>  (1) 
gpcr_drd2_6luq_protein_autoprepared_prepared

>  <s_lp_Force_Field>  (1) 
S-OPLS

>  <s_lp_Variant>  (1) 
DiffSBDD_70_num_sample_100-2

>  <s_m_source_file>  (1) 
generated__ligand_DiffSBDD_2026-05-06_prepared.sdf

>  <GenAI_Model>  (1) 
DiffSBDD

>  <Protein>  (1) 
generic_title2

$$$$
DiffSBDD_29_num_sample_100
     RDKit          3D

  0  0  0  0  0  0  0  0  0  0999 V3000
M  V30 BEGIN CTAB
M  V30 COUNTS 73 77 0 0 1
M  V30 BEGIN ATOM
M  V30 1 F 10.108945 6.169315 -18.204591 0
M  V30 2 O 6.376008 3.369309 -12.030054 0
M  V30 3 N 7.592857 7.513273 -11.891667 0
M  V30 4 C 9.568483 5.251632 -8.170997 0
M  V30 5 N 9.152303 7.116912 -21.654184 0
M  V30 6 C 7.818852 8.776953 -22.925088 0
M  V30 7 C 6.591538 4.784649 -13.930228 0 CFG=1
M  V30 8 C 5.664800 9.411459 -21.936574 0
M  V30 9 C 8.023446 7.920048 -21.833491 0
M  V30 10 C 6.355142 7.769272 -12.472884 0
M  V30 11 C 8.041411 5.108570 -10.246963 0
M  V30 12 N 5.846751 6.040025 -15.840566 0
M  V30 13 C 10.165885 7.668212 -7.840341 0 CFG=1
M  V30 14 O 9.836484 8.787336 -7.057285 0
M  V30 15 O 3.801986 7.369333 -16.691706 0
M  V30 16 C 9.942302 6.872262 -11.729205 0
M  V30 17 C 10.117713 6.712027 -10.202021 0 CFG=2
M  V30 18 C 9.047259 6.434852 -20.294563 0 CFG=2
M  V30 19 C 7.026808 6.553503 -18.692688 0
M  V30 20 C 7.665048 3.942259 -14.653727 0
M  V30 21 C 5.834841 7.236659 -13.611489 0
M  V30 22 C 6.700271 4.693779 -12.386448 0 CFG=2
M  V30 23 N 5.746904 6.969335 -18.312892 0
M  V30 24 C 5.919575 8.543007 -20.848018 0
M  V30 25 C 7.636934 6.921483 -19.848786 0
M  V30 26 C 9.434844 5.413156 -9.683790 0 CFG=1
M  V30 27 C 6.622615 9.532491 -22.980146 0
M  V30 28 C 9.279701 6.514847 -7.374052 0
M  V30 29 F 11.366473 6.517370 -19.930955 0
M  V30 30 C 8.547622 6.497358 -12.279981 0 CFG=1
M  V30 31 C 9.969968 7.979586 -9.338054 0
M  V30 32 C 6.510218 6.216768 -14.536414 0 CFG=1
M  V30 33 C 8.069013 5.110834 -11.789470 0 CFG=1
M  V30 34 C 10.201892 6.825665 -19.361344 0
M  V30 35 C 7.129800 7.810582 -20.840918 0
M  V30 36 O 6.031471 8.569313 -16.291662 0
M  V30 37 S 5.269379 7.389847 -16.715962 0
M  V30 38 H 5.484875 3.193079 -12.287010 0
M  V30 39 H 8.939034 4.431071 -7.830840 0
M  V30 40 H 10.596976 4.969310 -7.947192 0
M  V30 41 H 10.053142 7.417316 -21.999113 0
M  V30 42 H 8.556675 8.855876 -23.711638 0
M  V30 43 H 5.632649 4.312137 -14.153304 0
M  V30 44 H 4.751064 9.986264 -21.969335 0
M  V30 45 H 5.776486 8.479960 -11.891665 0
M  V30 46 H 7.719844 4.139640 -9.892335 0
M  V30 47 H 7.281688 5.769304 -9.849724 0
M  V30 48 H 5.120576 5.327895 -15.785010 0
M  V30 49 H 11.212496 7.418823 -7.656794 0
M  V30 50 H 8.911480 8.951496 -7.176704 0
M  V30 51 H 10.216266 7.879559 -12.041465 0
M  V30 52 H 10.664805 6.214817 -12.216675 0
M  V30 53 H 11.178044 6.569303 -10.049082 0
M  V30 54 H 9.022873 5.354740 -20.446623 0
M  V30 55 H 7.492413 5.889487 -17.978978 0
M  V30 56 H 8.659564 4.368810 -14.526469 0
M  V30 57 H 7.471963 3.886292 -15.725439 0
M  V30 58 H 7.694227 2.918527 -14.280639 0
M  V30 59 H 5.908194 5.273958 -11.915012 0
M  V30 60 H 5.205254 7.444012 -19.029850 0
M  V30 61 H 5.207859 8.465804 -20.049541 0
M  V30 62 H 10.004714 4.582378 -10.090949 0
M  V30 63 H 6.439609 10.197738 -23.811276 0
M  V30 64 H 9.433691 6.322727 -6.310632 0
M  V30 65 H 8.234839 6.772019 -7.490638 0
M  V30 66 H 8.713216 6.489411 -13.343587 0
M  V30 67 H 9.034791 8.475124 -9.521368 0
M  V30 68 H 10.718402 8.711296 -9.646374 0
M  V30 69 H 7.480075 6.620760 -14.807836 0
M  V30 70 H 8.807772 4.375788 -12.111869 0
M  V30 71 H 10.227651 7.893445 -19.154391 0
M  V30 72 H 4.857458 7.555319 -13.911892 0
M  V30 73 H 7.735886 7.901756 -10.955548 0
M  V30 END ATOM
M  V30 BEGIN BOND
M  V30 1 1 9 5
M  V30 2 2 9 6
M  V30 3 1 10 3
M  V30 4 1 14 13
M  V30 5 1 17 16
M  V30 6 1 18 5
M  V30 7 1 20 7
M  V30 8 2 21 10
M  V30 9 1 22 2
M  V30 10 1 22 7
M  V30 11 1 23 19
M  V30 12 1 24 8
M  V30 13 1 25 18
M  V30 14 2 25 19
M  V30 15 1 26 4
M  V30 16 1 26 11
M  V30 17 1 26 17
M  V30 18 1 27 6
M  V30 19 2 27 8
M  V30 20 1 28 4
M  V30 21 1 28 13
M  V30 22 1 30 3
M  V30 23 1 30 16
M  V30 24 1 31 13
M  V30 25 1 31 17
M  V30 26 1 32 7
M  V30 27 1 32 12
M  V30 28 1 32 21
M  V30 29 1 33 11
M  V30 30 1 33 22
M  V30 31 1 33 30
M  V30 32 1 34 1
M  V30 33 1 34 18
M  V30 34 1 34 29
M  V30 35 1 35 9
M  V30 36 2 35 24
M  V30 37 1 35 25
M  V30 38 1 37 12
M  V30 39 2 37 15
M  V30 40 1 37 23
M  V30 41 2 37 36
M  V30 42 1 38 2
M  V30 43 1 39 4
M  V30 44 1 40 4
M  V30 45 1 41 5
M  V30 46 1 42 6
M  V30 47 1 7 43 CFG=3
M  V30 48 1 44 8
M  V30 49 1 45 10
M  V30 50 1 46 11
M  V30 51 1 47 11
M  V30 52 1 48 12
M  V30 53 1 13 49 CFG=3
M  V30 54 1 50 14
M  V30 55 1 51 16
M  V30 56 1 52 16
M  V30 57 1 17 53 CFG=3
M  V30 58 1 18 54 CFG=3
M  V30 59 1 55 19
M  V30 60 1 56 20
M  V30 61 1 57 20
M  V30 62 1 58 20
M  V30 63 1 22 59 CFG=1
M  V30 64 1 60 23
M  V30 65 1 61 24
M  V30 66 1 26 62 CFG=3
M  V30 67 1 63 27
M  V30 68 1 64 28
M  V30 69 1 65 28
M  V30 70 1 30 66 CFG=3
M  V30 71 1 67 31
M  V30 72 1 68 31
M  V30 73 1 32 69 CFG=3
M  V30 74 1 33 70 CFG=1
M  V30 75 1 71 34
M  V30 76 1 72 21
M  V30 77 1 73 3
M  V30 END BOND
M  V30 END CTAB
M  END
>  <i_epik_Tot_Q>  (1) 
0

>  <i_epik_Tot_abs_Q>  (1) 
0

>  <i_i_glide_confnum>  (1) 
97

>  <i_i_glide_lignum>  (1) 
52

>  <i_i_glide_posenum>  (1) 
329

>  <i_i_glide_rotatable_bonds>  (1) 
7

>  <i_lp_mmshare_version>  (1) 
72125

>  <i_m_source_file_index>  (1) 
30

>  <i_f3d_flags>  (1) 
0

>  <num_sample>  (1) 
100

>  <b_lp_Chiralities_Consistent>  (1) 
1

>  <r_epik_Charging_Adjusted_Penalty>  (1) 
1.5459132844328078e-07

>  <r_epik_Ionization_Penalty>  (1) 
1.5952634643945804

>  <r_epik_Ionization_Penalty_Charging>  (1) 
1.5459132844328078e-07

>  <r_epik_Ionization_Penalty_Neutral>  (1) 
1.595263309803252

>  <r_epik_State_Penalty>  (1) 
-0

>  <r_glide_ring_energy>  (1) 
0

>  <r_i_docking_score>  (1) 
-4.7082698421292548

>  <r_i_glide_ecoul>  (1) 
-3.7739511824229401

>  <r_i_glide_eff_state_penalty>  (1) 
-0

>  <r_i_glide_einternal>  (1) 
12.716214182521899

>  <r_i_glide_emodel>  (1) 
-32.514758220913393

>  <r_i_glide_emodel_strain>  (1) 
1.1552080831248475

>  <r_i_glide_energy>  (1) 
-36.606315373065293

>  <r_i_glide_erotb>  (1) 
0.28486469644810641

>  <r_i_glide_esite>  (1) 
-0.10000000000000001

>  <r_i_glide_evdw>  (1) 
-32.832364190642352

>  <r_i_glide_gscore>  (1) 
-4.7082698421292548

>  <r_i_glide_gscore_strain>  (1) 
0

>  <r_i_glide_hbond>  (1) 
-0.11900720782357331

>  <r_i_glide_ligand_efficiency>  (1) 
-0.12725053627376365

>  <r_i_glide_ligand_efficiency_ln>  (1) 
-1.0211133512522679

>  <r_i_glide_ligand_efficiency_sa>  (1) 
-0.42402701760510131

>  <r_i_glide_lipo>  (1) 
-1.3627059239311863

>  <r_i_glide_metal>  (1) 
-0

>  <r_i_glide_rewards>  (1) 
-1.2037105199270433

>  <r_lp_Energy>  (1) 
37.495854000000001

>  <r_lp_tautomer_probability>  (1) 
1

>  <s_epik_Chemistry_Notes>  (1) 
This compound has an imine and may undergo hydrolysis.

>  <s_epik_cmdline>  (1) 
J2VwaWtfcHl0aG9uJywgJy1waHQnLCAnMS4wJywgJy1waCcsICc3LjQnLCAnLXRuJywgJzgnLCAnLW1hJywgJzUwMCcsICctaW1hZScsICc8aW5maWxlLm1hZT4nLCAnLW9tYWUnLCAnPG91dGZpbGUubWFlPic=

>  <s_epik_input>  (1) 
W2NIXTFbY0hdW2NIXVtjSF1jKGMxMilDKC9bQ0BASF0oW05IXTIpW0NIXShGKUYpPVtDSF1cW05IXVMoPU8pKD1PKVtOSF1bQ0BIXShbQ0BASF0oW0NIM10pW0NASF0zW09IXSlbQ0gyXVxbQ0hdPU5cW0NAQEhdKFtDSDJdNClbQ0BIXTNbQ0gyXVtDQEBIXShbQ0BASF00NSlbQ0gyXVtDSDJdW0NASF0oW09IXSlbQ0gyXTU=

>  <s_glide_docking_method>  (1) 
confgen

>  <s_i_glide_gridfile>  (1) 
gpcr_drd2_6luq_protein_autoprepared_prepared

>  <s_lp_Force_Field>  (1) 
S-OPLS

>  <s_lp_Variant>  (1) 
DiffSBDD_29_num_sample_100-2

>  <s_m_source_file>  (1) 
generated__ligand_DiffSBDD_2026-05-06_prepared.sdf

>  <GenAI_Model>  (1) 
DiffSBDD

>  <Protein>  (1) 
generic_title2

$$$$
DiffSBDD_4_num_sample_100
     RDKit          3D

  0  0  0  0  0  0  0  0  0  0999 V3000
M  V30 BEGIN CTAB
M  V30 COUNTS 57 60 0 0 1
M  V30 BEGIN ATOM
M  V30 1 C 9.919437 6.870645 -9.836303 0
M  V30 2 C 6.404368 6.903871 -19.492481 0
M  V30 3 C 8.276423 5.015607 -10.612783 0 CFG=2
M  V30 4 F 8.169123 3.875277 -19.517504 0
M  V30 5 C 6.241773 5.993193 -17.238687 0
M  V30 6 C 9.140090 4.335389 -11.705931 0
M  V30 7 C 5.893714 6.925800 -18.144863 0
M  V30 8 C 5.699749 6.012661 -15.819887 0
M  V30 9 C 8.283068 3.583102 -12.740593 0
M  V30 10 C 7.734815 5.629396 -14.282605 0 CFG=2
M  V30 11 O 11.435468 8.588645 -9.085487 0
M  V30 12 C 7.024255 5.753172 -11.150303 0
M  V30 13 C 6.273853 4.933617 -12.210506 0
M  V30 14 C 8.649658 5.148686 -15.439466 0
M  V30 15 C 10.154166 7.291075 -11.278250 0
M  V30 16 F 9.210889 5.509416 -18.579882 0
M  V30 17 C 9.474466 6.168854 -7.136527 0
M  V30 18 C 7.174566 4.823611 -17.603217 0 CFG=2
M  V30 19 C 10.353424 7.214552 -7.452621 0
M  V30 20 C 7.185853 4.473602 -13.367696 0 CFG=2
M  V30 21 C 9.035045 5.792808 -9.515835 0
M  V30 22 C 6.665318 6.619065 -14.797786 0
M  V30 23 C 8.823150 5.453055 -8.161055 0
M  V30 24 C 7.996557 4.186426 -16.453290 0
M  V30 25 C 8.002484 5.048997 -18.907439 0
M  V30 26 C 7.360982 6.042718 -19.863728 0
M  V30 27 C 10.579642 7.566458 -8.793722 0
M  V30 28 H 6.011301 7.603309 -20.215918 0
M  V30 29 H 7.839462 4.169729 -10.084724 0
M  V30 30 H 9.771129 5.022523 -12.257506 0
M  V30 31 H 9.834839 3.645580 -11.231224 0
M  V30 32 H 5.211861 7.715435 -17.856813 0
M  V30 33 H 5.434839 5.013046 -15.494555 0
M  V30 34 H 4.777689 6.594747 -15.827679 0
M  V30 35 H 7.804090 2.714648 -12.291840 0
M  V30 36 H 8.935458 3.160040 -13.491630 0
M  V30 37 H 8.375535 6.236480 -13.651324 0
M  V30 38 H 11.507029 8.750240 -10.011628 0
M  V30 39 H 6.329386 5.908865 -10.325592 0
M  V30 40 H 7.255723 6.748618 -11.520996 0
M  V30 41 H 5.863536 4.052132 -11.715695 0
M  V30 42 H 5.406361 5.481586 -12.575131 0
M  V30 43 H 9.056446 6.007048 -15.971623 0
M  V30 44 H 9.526182 4.654061 -15.019564 0
M  V30 45 H 11.040766 6.819404 -11.699260 0
M  V30 46 H 9.306199 7.120697 -11.927630 0
M  V30 47 H 10.294460 8.362211 -11.320468 0
M  V30 48 H 9.298865 5.909138 -6.104167 0
M  V30 49 H 6.460683 4.051464 -17.890077 0
M  V30 50 H 10.853126 7.755260 -6.661529 0
M  V30 51 H 6.566917 3.815927 -13.975027 0
M  V30 52 H 6.090199 7.015451 -13.961219 0
M  V30 53 H 7.141457 7.500537 -15.224007 0
M  V30 54 H 8.147215 4.648869 -7.906455 0
M  V30 55 H 7.383175 3.456232 -15.930204 0
M  V30 56 H 8.791527 3.590703 -16.904273 0
M  V30 57 H 7.726836 6.048690 -20.881614 0
M  V30 END ATOM
M  V30 BEGIN BOND
M  V30 1 1 6 3
M  V30 2 1 7 2
M  V30 3 2 7 5
M  V30 4 1 8 5
M  V30 5 1 9 6
M  V30 6 1 12 3
M  V30 7 1 13 12
M  V30 8 1 14 10
M  V30 9 1 15 1
M  V30 10 1 18 5
M  V30 11 2 19 17
M  V30 12 1 20 9
M  V30 13 1 20 10
M  V30 14 1 20 13
M  V30 15 1 21 1
M  V30 16 1 21 3
M  V30 17 1 22 8
M  V30 18 1 22 10
M  V30 19 1 23 17
M  V30 20 2 23 21
M  V30 21 1 24 14
M  V30 22 1 24 18
M  V30 23 1 25 4
M  V30 24 1 25 16
M  V30 25 1 25 18
M  V30 26 2 26 2
M  V30 27 1 26 25
M  V30 28 2 27 1
M  V30 29 1 27 11
M  V30 30 1 27 19
M  V30 31 1 28 2
M  V30 32 1 3 29 CFG=1
M  V30 33 1 30 6
M  V30 34 1 31 6
M  V30 35 1 32 7
M  V30 36 1 33 8
M  V30 37 1 34 8
M  V30 38 1 35 9
M  V30 39 1 36 9
M  V30 40 1 10 37 CFG=1
M  V30 41 1 38 11
M  V30 42 1 39 12
M  V30 43 1 40 12
M  V30 44 1 41 13
M  V30 45 1 42 13
M  V30 46 1 43 14
M  V30 47 1 44 14
M  V30 48 1 45 15
M  V30 49 1 46 15
M  V30 50 1 47 15
M  V30 51 1 48 17
M  V30 52 1 18 49 CFG=3
M  V30 53 1 50 19
M  V30 54 1 20 51 CFG=3
M  V30 55 1 52 22
M  V30 56 1 53 22
M  V30 57 1 54 23
M  V30 58 1 55 24
M  V30 59 1 56 24
M  V30 60 1 57 26
M  V30 END BOND
M  V30 END CTAB
M  END
>  <i_epik_Tot_Q>  (1) 
0

>  <i_epik_Tot_abs_Q>  (1) 
0

>  <i_i_glide_confnum>  (1) 
10

>  <i_i_glide_lignum>  (1) 
7

>  <i_i_glide_posenum>  (1) 
380

>  <i_i_glide_rotatable_bonds>  (1) 
3

>  <i_lp_mmshare_version>  (1) 
72125

>  <i_m_source_file_index>  (1) 
5

>  <i_f3d_flags>  (1) 
0

>  <num_sample>  (1) 
100

>  <b_lp_Chiralities_Consistent>  (1) 
1

>  <r_epik_Charging_Adjusted_Penalty>  (1) 
0

>  <r_epik_Ionization_Penalty>  (1) 
0.00041943368611793887

>  <r_epik_Ionization_Penalty_Charging>  (1) 
0

>  <r_epik_Ionization_Penalty_Neutral>  (1) 
0.00041943368611793887

>  <r_epik_State_Penalty>  (1) 
-0

>  <r_glide_ring_energy>  (1) 
0

>  <r_i_docking_score>  (1) 
-4.7011544576183155

>  <r_i_glide_ecoul>  (1) 
0.48074510870033915

>  <r_i_glide_eff_state_penalty>  (1) 
-0

>  <r_i_glide_einternal>  (1) 
2.294150163111258

>  <r_i_glide_emodel>  (1) 
-33.62467286777656

>  <r_i_glide_emodel_strain>  (1) 
0.00055225708610606716

>  <r_i_glide_energy>  (1) 
-28.148873644494977

>  <r_i_glide_erotb>  (1) 
0.27839532851763049

>  <r_i_glide_esite>  (1) 
0

>  <r_i_glide_evdw>  (1) 
-28.629618753195317

>  <r_i_glide_gscore>  (1) 
-4.7011544576183155

>  <r_i_glide_gscore_strain>  (1) 
0

>  <r_i_glide_hbond>  (1) 
0

>  <r_i_glide_ligand_efficiency>  (1) 
-0.17411683176364132

>  <r_i_glide_ligand_efficiency_ln>  (1) 
-1.0943512531449973

>  <r_i_glide_ligand_efficiency_sa>  (1) 
-0.52235049529092403

>  <r_i_glide_lipo>  (1) 
-1.8728583364585158

>  <r_i_glide_metal>  (1) 
-0

>  <r_i_glide_rewards>  (1) 
-1.7473222783227156

>  <r_lp_Energy>  (1) 
44.730646999999998

>  <r_lp_tautomer_probability>  (1) 
1

>  <s_epik_cmdline>  (1) 
J2VwaWtfcHl0aG9uJywgJy1waHQnLCAnMS4wJywgJy1waCcsICc3LjQnLCAnLXRuJywgJzgnLCAnLW1hJywgJzUwMCcsICctaW1hZScsICc8aW5maWxlLm1hZT4nLCAnLW9tYWUnLCAnPG91dGZpbGUubWFlPic=

>  <s_epik_input>  (1) 
W09IXWMxW2NIXVtjSF1bY0hdYyhjMVtDSDNdKVtDQEBIXTJbQ0gyXVtDSDJdW0NAQEhdKFtDSDJdW0NIMl0yKVtDQEhdKFtDSDJdW0NIMl0zKVtDSDJdW0NIMl1bQ0BASF0oQzM9NClDKEYpKEYpW0NIXT1bQ0hdW0NIXTQ=

>  <s_glide_docking_method>  (1) 
confgen

>  <s_i_glide_gridfile>  (1) 
gpcr_drd2_6luq_protein_autoprepared_prepared

>  <s_lp_Force_Field>  (1) 
S-OPLS

>  <s_lp_Variant>  (1) 
DiffSBDD_4_num_sample_100-1

>  <s_m_source_file>  (1) 
generated__ligand_DiffSBDD_2026-05-06_prepared.sdf

>  <GenAI_Model>  (1) 
DiffSBDD

>  <Protein>  (1) 
generic_title2

$$$$
DiffSBDD_4_num_sample_100
     RDKit          3D

  0  0  0  0  0  0  0  0  0  0999 V3000
M  V30 BEGIN CTAB
M  V30 COUNTS 57 60 0 0 1
M  V30 BEGIN ATOM
M  V30 1 C 9.881076 6.927098 -9.905910 0
M  V30 2 C 6.326296 6.969300 -19.463996 0
M  V30 3 C 8.282817 5.018219 -10.649893 0 CFG=2
M  V30 4 F 8.230123 4.025712 -19.557176 0
M  V30 5 C 6.232996 6.024256 -17.221780 0
M  V30 6 C 9.165602 4.334701 -11.717868 0
M  V30 7 C 5.837990 6.957094 -18.107199 0
M  V30 8 C 5.722858 6.010158 -15.790552 0
M  V30 9 C 8.341020 3.559786 -12.756012 0
M  V30 10 C 7.789087 5.584752 -14.302388 0 CFG=2
M  V30 11 O 11.374852 8.678501 -9.183885 0
M  V30 12 C 7.010465 5.710633 -11.191034 0
M  V30 13 C 6.295749 4.874340 -12.264160 0
M  V30 14 C 8.690543 5.121695 -15.472782 0
M  V30 15 C 10.066498 7.369408 -11.351340 0
M  V30 16 F 9.188790 5.692868 -18.589038 0
M  V30 17 C 9.554345 6.169296 -7.204924 0
M  V30 18 C 7.189309 4.887624 -17.625469 0 CFG=2
M  V30 19 C 10.388201 7.248411 -7.534258 0
M  V30 20 C 7.237183 4.424673 -13.402509 0 CFG=2
M  V30 21 C 9.037729 5.816894 -9.569920 0
M  V30 22 C 6.723438 6.589875 -14.786196 0
M  V30 23 C 8.885976 5.452031 -8.215226 0
M  V30 24 C 8.016817 4.203458 -16.509584 0
M  V30 25 C 8.005727 5.177398 -18.923746 0
M  V30 26 C 7.311826 6.153723 -19.858232 0
M  V30 27 C 10.555919 7.628321 -8.876625 0
M  V30 28 H 5.893933 7.658227 -20.174985 0
M  V30 29 H 7.869098 4.169296 -10.107049 0
M  V30 30 H 9.808974 5.024193 -12.251843 0
M  V30 31 H 9.834804 3.642171 -11.215398 0
M  V30 32 H 5.138669 7.719486 -17.794603 0
M  V30 33 H 5.434886 5.007741 -15.491105 0
M  V30 34 H 4.814665 6.611316 -15.759890 0
M  V30 35 H 7.877446 2.692159 -12.291675 0
M  V30 36 H 9.012951 3.136461 -13.491661 0
M  V30 37 H 8.444532 6.175756 -13.673218 0
M  V30 38 H 11.787397 9.057914 -8.424814 0
M  V30 39 H 6.314838 5.839857 -10.361468 0
M  V30 40 H 7.207202 6.709338 -11.571258 0
M  V30 41 H 5.878859 3.987317 -11.785058 0
M  V30 42 H 5.429753 5.410801 -12.647278 0
M  V30 43 H 9.116810 5.986187 -15.978362 0
M  V30 44 H 9.555764 4.601101 -15.063765 0
M  V30 45 H 10.937344 6.888375 -11.794770 0
M  V30 46 H 9.200770 7.199384 -11.973348 0
M  V30 47 H 10.234263 8.443665 -11.396600 0
M  V30 48 H 9.426988 5.886292 -6.171745 0
M  V30 49 H 6.482792 4.117216 -17.936572 0
M  V30 50 H 10.900562 7.788244 -6.752245 0
M  V30 51 H 6.641155 3.760412 -14.024706 0
M  V30 52 H 6.181005 6.993758 -13.932709 0
M  V30 53 H 7.206017 7.465763 -15.215855 0
M  V30 54 H 8.247810 4.622841 -7.948763 0
M  V30 55 H 7.399407 3.459843 -16.010099 0
M  V30 56 H 8.796073 3.611635 -16.991121 0
M  V30 57 H 7.661848 6.185523 -20.879593 0
M  V30 END ATOM
M  V30 BEGIN BOND
M  V30 1 1 6 3
M  V30 2 1 7 2
M  V30 3 2 7 5
M  V30 4 1 8 5
M  V30 5 1 9 6
M  V30 6 1 12 3
M  V30 7 1 13 12
M  V30 8 1 14 10
M  V30 9 1 15 1
M  V30 10 1 18 5
M  V30 11 2 19 17
M  V30 12 1 20 9
M  V30 13 1 20 10
M  V30 14 1 20 13
M  V30 15 1 21 1
M  V30 16 1 21 3
M  V30 17 1 22 8
M  V30 18 1 22 10
M  V30 19 1 23 17
M  V30 20 2 23 21
M  V30 21 1 24 14
M  V30 22 1 24 18
M  V30 23 1 25 4
M  V30 24 1 25 16
M  V30 25 1 25 18
M  V30 26 2 26 2
M  V30 27 1 26 25
M  V30 28 2 27 1
M  V30 29 1 27 11
M  V30 30 1 27 19
M  V30 31 1 28 2
M  V30 32 1 3 29 CFG=1
M  V30 33 1 30 6
M  V30 34 1 31 6
M  V30 35 1 32 7
M  V30 36 1 33 8
M  V30 37 1 34 8
M  V30 38 1 35 9
M  V30 39 1 36 9
M  V30 40 1 10 37 CFG=1
M  V30 41 1 38 11
M  V30 42 1 39 12
M  V30 43 1 40 12
M  V30 44 1 41 13
M  V30 45 1 42 13
M  V30 46 1 43 14
M  V30 47 1 44 14
M  V30 48 1 45 15
M  V30 49 1 46 15
M  V30 50 1 47 15
M  V30 51 1 48 17
M  V30 52 1 18 49 CFG=3
M  V30 53 1 50 19
M  V30 54 1 20 51 CFG=3
M  V30 55 1 52 22
M  V30 56 1 53 22
M  V30 57 1 54 23
M  V30 58 1 55 24
M  V30 59 1 56 24
M  V30 60 1 57 26
M  V30 END BOND
M  V30 END CTAB
M  END
>  <i_epik_Tot_Q>  (1) 
0

>  <i_epik_Tot_abs_Q>  (1) 
0

>  <i_i_glide_confnum>  (1) 
13

>  <i_i_glide_lignum>  (1) 
7

>  <i_i_glide_posenum>  (1) 
379

>  <i_i_glide_rotatable_bonds>  (1) 
3

>  <i_lp_mmshare_version>  (1) 
72125

>  <i_m_source_file_index>  (1) 
5

>  <i_f3d_flags>  (1) 
0

>  <num_sample>  (1) 
100

>  <b_lp_Chiralities_Consistent>  (1) 
1

>  <r_epik_Charging_Adjusted_Penalty>  (1) 
0

>  <r_epik_Ionization_Penalty>  (1) 
0.00041943368611793887

>  <r_epik_Ionization_Penalty_Charging>  (1) 
0

>  <r_epik_Ionization_Penalty_Neutral>  (1) 
0.00041943368611793887

>  <r_epik_State_Penalty>  (1) 
-0

>  <r_glide_ring_energy>  (1) 
0

>  <r_i_docking_score>  (1) 
-4.698410716347726

>  <r_i_glide_ecoul>  (1) 
0.80381928345954401

>  <r_i_glide_eff_state_penalty>  (1) 
-0

>  <r_i_glide_einternal>  (1) 
2.2670833159915897

>  <r_i_glide_emodel>  (1) 
-33.962562651334821

>  <r_i_glide_emodel_strain>  (1) 
0

>  <r_i_glide_energy>  (1) 
-28.476543387001673

>  <r_i_glide_erotb>  (1) 
0.27839532851763049

>  <r_i_glide_esite>  (1) 
0

>  <r_i_glide_evdw>  (1) 
-29.280362670461216

>  <r_i_glide_gscore>  (1) 
-4.698410716347726

>  <r_i_glide_gscore_strain>  (1) 
0

>  <r_i_glide_hbond>  (1) 
0

>  <r_i_glide_ligand_efficiency>  (1) 
-0.17401521171658244

>  <r_i_glide_ligand_efficiency_ln>  (1) 
-1.0937125554113141

>  <r_i_glide_ligand_efficiency_sa>  (1) 
-0.52204563514974744

>  <r_i_glide_lipo>  (1) 
-1.890343411898376

>  <r_i_glide_metal>  (1) 
-0

>  <r_i_glide_rewards>  (1) 
-1.7430173919628515

>  <r_lp_Energy>  (1) 
44.730646999999998

>  <r_lp_tautomer_probability>  (1) 
1

>  <s_epik_cmdline>  (1) 
J2VwaWtfcHl0aG9uJywgJy1waHQnLCAnMS4wJywgJy1waCcsICc3LjQnLCAnLXRuJywgJzgnLCAnLW1hJywgJzUwMCcsICctaW1hZScsICc8aW5maWxlLm1hZT4nLCAnLW9tYWUnLCAnPG91dGZpbGUubWFlPic=

>  <s_epik_input>  (1) 
W09IXWMxW2NIXVtjSF1bY0hdYyhjMVtDSDNdKVtDQEBIXTJbQ0gyXVtDSDJdW0NAQEhdKFtDSDJdW0NIMl0yKVtDQEhdKFtDSDJdW0NIMl0zKVtDSDJdW0NIMl1bQ0BASF0oQzM9NClDKEYpKEYpW0NIXT1bQ0hdW0NIXTQ=

>  <s_glide_docking_method>  (1) 
confgen

>  <s_i_glide_gridfile>  (1) 
gpcr_drd2_6luq_protein_autoprepared_prepared

>  <s_lp_Force_Field>  (1) 
S-OPLS

>  <s_lp_Variant>  (1) 
DiffSBDD_4_num_sample_100-1

>  <s_m_source_file>  (1) 
generated__ligand_DiffSBDD_2026-05-06_prepared.sdf

>  <GenAI_Model>  (1) 
DiffSBDD

>  <Protein>  (1) 
generic_title2

$$$$
DiffSBDD_45_num_sample_100
     RDKit          3D

  0  0  0  0  0  0  0  0  0  0999 V3000
M  V30 BEGIN CTAB
M  V30 COUNTS 63 65 0 0 1
M  V30 BEGIN ATOM
M  V30 1 C 6.493021 6.861721 -19.178711 0
M  V30 2 C 9.420401 7.923566 -10.804198 0
M  V30 3 C 5.191466 7.686070 -19.239049 0
M  V30 4 C 9.435690 7.877468 -7.537645 0 CFG=1
M  V30 5 C 9.507429 6.792092 -8.617671 0 CFG=1
M  V30 6 C 11.950857 8.215142 -7.435805 0
M  V30 7 C 7.195766 4.363953 -15.202443 0
M  V30 8 C 5.921077 5.898209 -16.904243 0 CFG=2
M  V30 9 O 7.632200 3.757394 -16.182696 0
M  V30 10 N 10.183115 7.067634 -9.901592 0
M  V30 11 Cl 10.234828 5.369300 -7.907106 0
M  V30 12 C 7.439569 6.138548 -12.604159 0 CFG=1
M  V30 13 C 5.520405 4.392666 -12.333843 0
M  V30 14 C 4.240418 7.359833 -18.099638 0
M  V30 15 C 8.985886 6.254164 -12.697161 0
M  V30 16 N 10.650475 8.168617 -6.758617 0
M  V30 17 C 6.701806 7.084209 -13.555221 0
M  V30 18 C 9.592907 7.612648 -12.280617 0
M  V30 19 C 4.563349 6.569275 -17.062780 0
M  V30 20 C 11.587111 7.455799 -9.816705 0
M  V30 21 C 6.976711 4.675227 -12.719753 0 CFG=1
M  V30 22 C 6.317548 5.632315 -15.411880 0 CFG=2
M  V30 23 F 9.034840 8.969308 -8.120766 0
M  V30 24 O 6.965340 6.794499 -14.912854 0
M  V30 25 C 6.960371 6.654168 -17.728178 0
M  V30 26 C 11.915279 8.644999 -8.908436 0
M  V30 27 N 7.431573 3.943836 -13.920097 0
M  V30 28 C 8.165803 2.701076 -13.658509 0
M  V30 29 H 7.272374 7.355722 -19.760279 0
M  V30 30 H 6.334503 5.888617 -19.644393 0
M  V30 31 H 9.616884 8.969265 -10.585656 0
M  V30 32 H 8.357817 7.818521 -10.691668 0
M  V30 33 H 4.686258 7.521565 -20.191329 0
M  V30 34 H 5.425410 8.749054 -19.181593 0
M  V30 35 H 8.634819 7.623454 -6.843121 0
M  V30 36 H 8.487928 6.485143 -8.839890 0
M  V30 37 H 12.423738 7.235358 -7.370356 0
M  V30 38 H 12.602533 8.894908 -6.885984 0
M  V30 39 H 5.825746 4.969298 -17.441223 0
M  V30 40 H 7.143866 6.438870 -11.599944 0
M  V30 41 H 5.254473 4.903187 -11.407142 0
M  V30 42 H 4.786311 4.656023 -13.088101 0
M  V30 43 H 5.434843 3.327930 -12.150388 0
M  V30 44 H 3.255297 7.801447 -18.148458 0
M  V30 45 H 9.445792 5.478326 -12.084223 0
M  V30 46 H 9.292833 6.020894 -13.714664 0
M  V30 47 H 10.706579 7.506626 -5.991343 0
M  V30 48 H 7.034984 8.100331 -13.369638 0
M  V30 49 H 5.627945 7.086567 -13.362844 0
M  V30 50 H 10.634840 7.658092 -12.580100 0
M  V30 51 H 9.082568 8.425674 -12.777297 0
M  V30 52 H 3.834001 6.377595 -16.292013 0
M  V30 53 H 12.166893 6.604286 -9.491668 0
M  V30 54 H 11.961293 7.675001 -10.815303 0
M  V30 55 H 7.516953 4.206930 -11.893633 0
M  V30 56 H 5.379846 5.463957 -14.895939 0
M  V30 57 H 7.034838 7.621838 -17.249297 0
M  V30 58 H 7.934199 6.165239 -17.692121 0
M  V30 59 H 12.922267 8.969329 -9.170705 0
M  V30 60 H 11.275567 9.507871 -9.089222 0
M  V30 61 H 8.418698 2.123820 -14.547865 0
M  V30 62 H 9.074526 2.909144 -13.091636 0
M  V30 63 H 7.550593 2.048105 -13.039219 0
M  V30 END ATOM
M  V30 BEGIN BOND
M  V30 1 1 3 1
M  V30 2 1 5 4
M  V30 3 2 9 7
M  V30 4 1 10 2
M  V30 5 1 10 5
M  V30 6 1 11 5
M  V30 7 1 14 3
M  V30 8 1 15 12
M  V30 9 1 16 4
M  V30 10 1 16 6
M  V30 11 1 17 12
M  V30 12 1 18 2
M  V30 13 1 18 15
M  V30 14 1 19 8
M  V30 15 2 19 14
M  V30 16 1 20 10
M  V30 17 1 21 12
M  V30 18 1 21 13
M  V30 19 1 22 7
M  V30 20 1 22 8
M  V30 21 1 23 4
M  V30 22 1 24 17
M  V30 23 1 24 22
M  V30 24 1 25 1
M  V30 25 1 25 8
M  V30 26 1 26 6
M  V30 27 1 26 20
M  V30 28 1 27 7
M  V30 29 1 27 21
M  V30 30 1 28 27
M  V30 31 1 29 1
M  V30 32 1 30 1
M  V30 33 1 31 2
M  V30 34 1 32 2
M  V30 35 1 33 3
M  V30 36 1 34 3
M  V30 37 1 4 35 CFG=1
M  V30 38 1 5 36 CFG=3
M  V30 39 1 37 6
M  V30 40 1 38 6
M  V30 41 1 8 39 CFG=3
M  V30 42 1 12 40 CFG=1
M  V30 43 1 41 13
M  V30 44 1 42 13
M  V30 45 1 43 13
M  V30 46 1 44 14
M  V30 47 1 45 15
M  V30 48 1 46 15
M  V30 49 1 47 16
M  V30 50 1 48 17
M  V30 51 1 49 17
M  V30 52 1 50 18
M  V30 53 1 51 18
M  V30 54 1 52 19
M  V30 55 1 53 20
M  V30 56 1 54 20
M  V30 57 1 21 55 CFG=1
M  V30 58 1 22 56 CFG=1
M  V30 59 1 57 25
M  V30 60 1 58 25
M  V30 61 1 59 26
M  V30 62 1 60 26
M  V30 63 1 61 28
M  V30 64 1 62 28
M  V30 65 1 63 28
M  V30 END BOND
M  V30 END CTAB
M  END
>  <i_epik_Tot_Q>  (1) 
0

>  <i_epik_Tot_abs_Q>  (1) 
0

>  <i_i_glide_confnum>  (1) 
6

>  <i_i_glide_lignum>  (1) 
84

>  <i_i_glide_posenum>  (1) 
365

>  <i_i_glide_rotatable_bonds>  (1) 
5

>  <i_lp_mmshare_version>  (1) 
72125

>  <i_m_source_file_index>  (1) 
46

>  <i_f3d_flags>  (1) 
0

>  <num_sample>  (1) 
100

>  <b_lp_Chiralities_Consistent>  (1) 
1

>  <r_epik_Charging_Adjusted_Penalty>  (1) 
0.015133208647659156

>  <r_epik_Ionization_Penalty>  (1) 
0.015206278080010002

>  <r_epik_Ionization_Penalty_Charging>  (1) 
0

>  <r_epik_Ionization_Penalty_Neutral>  (1) 
0.015206278080010002

>  <r_epik_State_Penalty>  (1) 
0.015133208647659156

>  <r_glide_ring_energy>  (1) 
0

>  <r_i_docking_score>  (1) 
-4.6944322300659866

>  <r_i_glide_ecoul>  (1) 
-1.5829121103993629

>  <r_i_glide_eff_state_penalty>  (1) 
0.015133208647659156

>  <r_i_glide_einternal>  (1) 
9.3266410794259222

>  <r_i_glide_emodel>  (1) 
-20.271394460985022

>  <r_i_glide_emodel_strain>  (1) 
0.42247746013210019

>  <r_i_glide_energy>  (1) 
-19.289255588753019

>  <r_i_glide_erotb>  (1) 
0.45657733151366331

>  <r_i_glide_esite>  (1) 
-0.071091312921823899

>  <r_i_glide_evdw>  (1) 
-17.706343478353656

>  <r_i_glide_gscore>  (1) 
-4.7095654387136454

>  <r_i_glide_gscore_strain>  (1) 
0

>  <r_i_glide_hbond>  (1) 
0

>  <r_i_glide_ligand_efficiency>  (1) 
-0.1676582939309281

>  <r_i_glide_ligand_efficiency_ln>  (1) 
-1.0836127932187885

>  <r_i_glide_ligand_efficiency_sa>  (1) 
-0.50910932639414463

>  <r_i_glide_lipo>  (1) 
-2.4704381490899325

>  <r_i_glide_metal>  (1) 
-0

>  <r_i_glide_rewards>  (1) 
-1.5018593177379649

>  <r_lp_Energy>  (1) 
27.293519

>  <s_epik_cmdline>  (1) 
J2VwaWtfcHl0aG9uJywgJy1waHQnLCAnMS4wJywgJy1waCcsICc3LjQnLCAnLXRuJywgJzgnLCAnLW1hJywgJzUwMCcsICctaW1hZScsICc8aW5maWxlLm1hZT4nLCAnLW9tYWUnLCAnPG91dGZpbGUubWFlPic=

>  <s_epik_input>  (1) 
W0NIMl0xW0NIMl1bQ0gyXVtDSF09W0NIXVtDQEhdMVtDQEBIXShDMj1PKU9bQ0gyXVtDQEBIXShbQ0BASF0oW0NIM10pTjJbQ0gzXSlbQ0gyXVtDSDJdW0NIMl1OKFtDQEBIXShDbClbQ0BASF0zRilbQ0gyXVtDSDJdW0NIMl1bTkhdMw==

>  <s_glide_docking_method>  (1) 
confgen

>  <s_i_glide_gridfile>  (1) 
gpcr_drd2_6luq_protein_autoprepared_prepared

>  <s_lp_Force_Field>  (1) 
S-OPLS

>  <s_lp_Variant>  (1) 
DiffSBDD_45_num_sample_100-3

>  <s_m_source_file>  (1) 
generated__ligand_DiffSBDD_2026-05-06_prepared.sdf

>  <GenAI_Model>  (1) 
DiffSBDD

>  <Protein>  (1) 
generic_title2

$$$$
DiffSBDD_6_num_sample_100
     RDKit          3D

  0  0  0  0  0  0  0  0  0  0999 V3000
M  V30 BEGIN CTAB
M  V30 COUNTS 64 67 0 0 1
M  V30 BEGIN ATOM
M  V30 1 N 8.497434 5.161133 -17.959496 0
M  V30 2 N 15.006626 6.863148 -18.121835 0
M  V30 3 C 15.921619 6.045221 -17.404213 0
M  V30 4 C 14.124168 4.599185 -16.250944 0
M  V30 5 C 7.230507 3.579291 -13.414144 0
M  V30 6 N 12.161145 5.497594 -19.325869 0
M  V30 7 C 7.611654 5.273962 -16.845539 0
M  V30 8 F 17.835194 7.229458 -16.691790 0
M  V30 9 C 10.286887 4.900494 -21.313050 0
M  V30 10 C 7.982473 5.152298 -19.326545 0
M  V30 11 C 13.322898 5.071588 -18.527059 0 CFG=1
M  V30 12 F 6.859510 2.417090 -13.949501 0
M  V30 13 C 10.777536 5.882896 -18.918402 0 CFG=2
M  V30 14 C 13.584905 6.547985 -18.247809 0 CFG=2
M  V30 15 C 12.936718 6.714496 -19.641887 0
M  V30 16 F 8.519731 3.481816 -13.091427 0
M  V30 17 C 5.835109 6.930911 -14.856190 0
M  V30 18 C 5.954195 7.096614 -16.170246 0
M  V30 19 C 7.027235 4.705824 -14.427954 0
M  V30 20 C 9.992193 4.991441 -17.855549 0 CFG=1
M  V30 21 F 16.042750 8.909172 -17.905832 0
M  V30 22 C 6.363096 6.056597 -17.131302 0
M  V30 23 C 6.153478 5.718712 -14.100839 0
M  V30 24 C 13.311290 4.046132 -17.425145 0
M  V30 25 C 10.560378 5.408636 -16.468279 0
M  V30 26 F 18.147894 5.286294 -17.576667 0
M  V30 27 C 15.555263 5.020175 -16.581423 0
M  V30 28 C 10.053825 6.053592 -20.300647 0 CFG=2
M  V30 29 C 7.852852 4.663867 -15.661846 0
M  V30 30 C 17.395076 6.385211 -17.624028 0
M  V30 31 C 8.562604 6.310778 -20.115365 0
M  V30 32 C 15.416469 8.110802 -18.770247 0
M  V30 33 F 6.537631 3.751996 -12.287046 0
M  V30 34 H 14.195746 3.822407 -15.491394 0
M  V30 35 H 13.618308 5.432244 -15.763726 0
M  V30 36 H 10.133836 3.920683 -20.861100 0
M  V30 37 H 9.619799 4.981913 -22.171482 0
M  V30 38 H 11.301656 4.914577 -21.711279 0
M  V30 39 H 8.253221 4.199676 -19.779219 0
M  V30 40 H 6.895774 5.151908 -19.384857 0
M  V30 41 H 14.063390 4.731606 -19.258650 0
M  V30 42 H 10.806903 6.878342 -18.475264 0
M  V30 43 H 12.991572 6.995794 -17.452430 0
M  V30 44 H 13.603064 6.525242 -20.486621 0
M  V30 45 H 12.328563 7.609559 -19.778423 0
M  V30 46 H 5.450973 7.768657 -14.292541 0
M  V30 47 H 5.675429 8.049190 -16.599332 0
M  V30 48 H 10.215347 3.942268 -18.050347 0
M  V30 49 H 6.458855 6.639300 -18.044961 0
M  V30 50 H 5.531652 5.370258 -17.288166 0
M  V30 51 H 5.674521 5.639671 -13.137360 0
M  V30 52 H 12.319280 3.734412 -17.121839 0
M  V30 53 H 13.783899 3.130389 -17.780241 0
M  V30 54 H 10.679967 4.569363 -15.785584 0
M  V30 55 H 9.956756 6.169185 -15.986116 0
M  V30 56 H 11.542061 5.853748 -16.529298 0
M  V30 57 H 16.329809 4.455682 -16.084513 0
M  V30 58 H 10.443200 6.950981 -20.782305 0
M  V30 59 H 8.730969 4.052314 -15.607307 0
M  V30 60 H 17.609465 6.827088 -18.594813 0
M  V30 61 H 8.065663 6.399937 -21.081882 0
M  V30 62 H 8.393516 7.251411 -19.589249 0
M  V30 63 H 16.066710 7.934827 -19.626550 0
M  V30 64 H 14.557385 8.682466 -19.123011 0
M  V30 END ATOM
M  V30 BEGIN BOND
M  V30 1 1 3 2
M  V30 2 1 7 1
M  V30 3 1 10 1
M  V30 4 1 11 6
M  V30 5 1 12 5
M  V30 6 1 13 6
M  V30 7 1 14 2
M  V30 8 1 14 11
M  V30 9 1 15 6
M  V30 10 1 15 14
M  V30 11 1 16 5
M  V30 12 2 18 17
M  V30 13 1 19 5
M  V30 14 1 20 1
M  V30 15 1 20 13
M  V30 16 1 22 7
M  V30 17 1 22 18
M  V30 18 1 23 17
M  V30 19 2 23 19
M  V30 20 1 24 4
M  V30 21 1 24 11
M  V30 22 1 25 20
M  V30 23 2 27 3
M  V30 24 1 27 4
M  V30 25 1 28 9
M  V30 26 1 28 13
M  V30 27 2 29 7
M  V30 28 1 29 19
M  V30 29 1 30 3
M  V30 30 1 30 8
M  V30 31 1 30 26
M  V30 32 1 31 10
M  V30 33 1 31 28
M  V30 34 1 32 2
M  V30 35 1 32 21
M  V30 36 1 33 5
M  V30 37 1 34 4
M  V30 38 1 35 4
M  V30 39 1 36 9
M  V30 40 1 37 9
M  V30 41 1 38 9
M  V30 42 1 39 10
M  V30 43 1 40 10
M  V30 44 1 11 41 CFG=3
M  V30 45 1 13 42 CFG=1
M  V30 46 1 14 43 CFG=1
M  V30 47 1 44 15
M  V30 48 1 45 15
M  V30 49 1 46 17
M  V30 50 1 47 18
M  V30 51 1 20 48 CFG=3
M  V30 52 1 49 22
M  V30 53 1 50 22
M  V30 54 1 51 23
M  V30 55 1 52 24
M  V30 56 1 53 24
M  V30 57 1 54 25
M  V30 58 1 55 25
M  V30 59 1 56 25
M  V30 60 1 57 27
M  V30 61 1 28 58 CFG=3
M  V30 62 1 59 29
M  V30 63 1 60 30
M  V30 64 1 61 31
M  V30 65 1 62 31
M  V30 66 1 63 32
M  V30 67 1 64 32
M  V30 END BOND
M  V30 END CTAB
M  END
>  <i_epik_Tot_Q>  (1) 
0

>  <i_epik_Tot_abs_Q>  (1) 
0

>  <i_i_glide_confnum>  (1) 
19

>  <i_i_glide_lignum>  (1) 
9

>  <i_i_glide_posenum>  (1) 
238

>  <i_i_glide_rotatable_bonds>  (1) 
5

>  <i_lp_mmshare_version>  (1) 
72125

>  <i_m_source_file_index>  (1) 
7

>  <i_f3d_flags>  (1) 
0

>  <num_sample>  (1) 
100

>  <b_lp_Chiralities_Consistent>  (1) 
1

>  <r_epik_Charging_Adjusted_Penalty>  (1) 
0.092622925798260772

>  <r_epik_Ionization_Penalty>  (1) 
0.092625697702171175

>  <r_epik_Ionization_Penalty_Charging>  (1) 
0.00035560143118834142

>  <r_epik_Ionization_Penalty_Neutral>  (1) 
0.092270096270982829

>  <r_epik_State_Penalty>  (1) 
0.092267324367072426

>  <r_glide_ring_energy>  (1) 
0.067460085264339317

>  <r_i_docking_score>  (1) 
-4.6940515034977075

>  <r_i_glide_ecoul>  (1) 
-1.0659779604203001

>  <r_i_glide_eff_state_penalty>  (1) 
0.092267324367072426

>  <r_i_glide_einternal>  (1) 
0.70273740925593842

>  <r_i_glide_emodel>  (1) 
-33.264598059096343

>  <r_i_glide_emodel_strain>  (1) 
2.0338110948768815

>  <r_i_glide_energy>  (1) 
-27.892403857935665

>  <r_i_glide_erotb>  (1) 
0.17904337208641333

>  <r_i_glide_esite>  (1) 
0

>  <r_i_glide_evdw>  (1) 
-26.826425897515364

>  <r_i_glide_gscore>  (1) 
-4.7863188278647799

>  <r_i_glide_gscore_strain>  (1) 
0

>  <r_i_glide_hbond>  (1) 
0

>  <r_i_glide_ligand_efficiency>  (1) 
-0.14224398495447599

>  <r_i_glide_ligand_efficiency_ln>  (1) 
-1.0439327498799538

>  <r_i_glide_ligand_efficiency_sa>  (1) 
-0.45625246497689159

>  <r_i_glide_lipo>  (1) 
-1.9574211390413232

>  <r_i_glide_metal>  (1) 
-0

>  <r_i_glide_rewards>  (1) 
-1.5067230719710558

>  <r_lp_Energy>  (1) 
53.872712999999997

>  <s_epik_Chemistry_Notes>  (1) 
This compound has an imine and may undergo hydrolysis.

>  <s_epik_cmdline>  (1) 
J2VwaWtfcHl0aG9uJywgJy1waHQnLCAnMS4wJywgJy1waCcsICc3LjQnLCAnLXRuJywgJzgnLCAnLW1hJywgJzUwMCcsICctaW1hZScsICc8aW5maWxlLm1hZT4nLCAnLW9tYWUnLCAnPG91dGZpbGUubWFlPic=

>  <s_epik_input>  (1) 
W0NIMl0xW0NIXT1bQ0hdW0NIXT1DKEMoRikoRilGKVtDSF09QzFOMltDSDJdW0NIMl1bQ0BIXShbQ0gzXSlbQ0BASF0oW0NASF0yW0NIM10pTjNbQ0gyXVtDQEBIXShbQ0BIXTM0KU4oW0NIMl1GKUMoW0NIXShGKUYpPVtDSF1bQ0gyXVtDSDJdNA==

>  <s_glide_docking_method>  (1) 
confgen

>  <s_i_glide_gridfile>  (1) 
gpcr_drd2_6luq_protein_autoprepared_prepared

>  <s_lp_Force_Field>  (1) 
S-OPLS

>  <s_lp_Variant>  (1) 
DiffSBDD_6_num_sample_100-1

>  <s_m_source_file>  (1) 
generated__ligand_DiffSBDD_2026-05-06_prepared.sdf

>  <GenAI_Model>  (1) 
DiffSBDD

>  <Protein>  (1) 
generic_title2

$$$$
DiffSBDD_49_num_sample_100
     RDKit          3D

  0  0  0  0  0  0  0  0  0  0999 V3000
M  V30 BEGIN CTAB
M  V30 COUNTS 53 56 0 0 1
M  V30 BEGIN ATOM
M  V30 1 N 8.127365 4.016448 -11.891622 0
M  V30 2 C 7.540470 2.083208 -15.830446 0
M  V30 3 C 6.437893 0.449484 -14.391671 0
M  V30 4 C 8.972411 8.015235 -11.983918 0
M  V30 5 C 11.434840 7.250740 -6.220942 0
M  V30 6 S 6.046519 5.285838 -13.007186 0
M  V30 7 C 7.472546 3.039891 -14.798688 0
M  V30 8 C 10.561115 6.672510 -8.586980 0 CFG=1
M  V30 9 C 6.813720 3.733056 -12.440678 0 CFG=1
M  V30 10 C 7.788197 7.411724 -12.743188 0
M  V30 11 C 9.341451 6.173154 -9.415192 0
M  V30 12 C 8.250747 5.240735 -11.615992 0
M  V30 13 C 11.977584 8.629838 -6.693461 0 CFG=2
M  V30 14 O 11.034863 9.920606 -4.889753 0
M  V30 15 C 9.496806 5.821302 -10.933108 0 CFG=1
M  V30 16 C 11.050555 9.778512 -6.295891 0
M  V30 17 C 6.885846 2.702629 -13.559344 0
M  V30 18 C 11.114362 8.038331 -9.044842 0
M  V30 19 C 7.023982 0.788561 -15.626789 0
M  V30 20 C 7.179388 6.227988 -11.980920 0 CFG=2
M  V30 21 C 10.236551 6.753263 -7.071598 0
M  V30 22 N 9.983216 6.961248 -11.744866 0 CHG=1
M  V30 23 C 12.304829 8.481706 -8.191854 0
M  V30 24 C 6.368336 1.404137 -13.358455 0
M  V30 25 H 10.234832 5.035839 -11.022336 0
M  V30 26 H 7.989305 2.342320 -16.778108 0
M  V30 27 H 6.041028 -0.544743 -14.236510 0
M  V30 28 H 9.420106 8.821993 -12.558700 0
M  V30 29 H 8.641645 8.456279 -11.043318 0
M  V30 30 H 12.217667 6.494983 -6.299097 0
M  V30 31 H 11.156452 7.285483 -5.167047 0
M  V30 32 H 7.871090 4.031618 -14.956120 0
M  V30 33 H 11.352947 5.949561 -8.682327 0
M  V30 34 H 6.179120 3.343247 -11.643009 0
M  V30 35 H 8.111183 7.088987 -13.733700 0
M  V30 36 H 7.034164 8.169287 -12.897909 0
M  V30 37 H 8.906829 5.309774 -8.908800 0
M  V30 38 H 8.634842 6.969166 -9.307230 0
M  V30 39 H 12.904195 8.969273 -6.215928 0
M  V30 40 H 11.923202 10.012545 -4.581890 0
M  V30 41 H 10.048776 9.611214 -6.685484 0
M  V30 42 H 11.434826 10.717351 -6.691643 0
M  V30 43 H 11.482988 7.995408 -10.064711 0
M  V30 44 H 10.331605 8.798157 -9.020864 0
M  V30 45 H 7.077254 0.054871 -16.417946 0
M  V30 46 H 9.935945 5.769363 -6.710681 0
M  V30 47 H 9.375205 7.402826 -6.908844 0
M  V30 48 H 12.725993 9.369304 -8.624441 0
M  V30 49 H 13.108710 7.756164 -8.295621 0
M  V30 50 H 5.919216 1.140109 -12.412155 0
M  V30 51 H 10.780190 7.364730 -11.277685 0
M  V30 52 H 6.651009 6.554125 -11.091667 0
M  V30 53 H 10.278642 6.595091 -12.639984 0
M  V30 END ATOM
M  V30 BEGIN BOND
M  V30 1 1 7 2
M  V30 2 1 9 1
M  V30 3 1 9 6
M  V30 4 1 10 4
M  V30 5 1 11 8
M  V30 6 2 12 1
M  V30 7 1 13 5
M  V30 8 1 15 11
M  V30 9 1 15 12
M  V30 10 1 16 13
M  V30 11 1 16 14
M  V30 12 2 17 7
M  V30 13 1 17 9
M  V30 14 1 18 8
M  V30 15 2 19 2
M  V30 16 1 19 3
M  V30 17 1 20 6
M  V30 18 1 20 10
M  V30 19 1 20 12
M  V30 20 1 21 5
M  V30 21 1 21 8
M  V30 22 1 22 4
M  V30 23 1 22 15
M  V30 24 1 23 13
M  V30 25 1 23 18
M  V30 26 2 24 3
M  V30 27 1 24 17
M  V30 28 1 15 25 CFG=1
M  V30 29 1 26 2
M  V30 30 1 27 3
M  V30 31 1 28 4
M  V30 32 1 29 4
M  V30 33 1 30 5
M  V30 34 1 31 5
M  V30 35 1 32 7
M  V30 36 1 8 33 CFG=1
M  V30 37 1 9 34 CFG=1
M  V30 38 1 35 10
M  V30 39 1 36 10
M  V30 40 1 37 11
M  V30 41 1 38 11
M  V30 42 1 13 39 CFG=1
M  V30 43 1 40 14
M  V30 44 1 41 16
M  V30 45 1 42 16
M  V30 46 1 43 18
M  V30 47 1 44 18
M  V30 48 1 45 19
M  V30 49 1 46 21
M  V30 50 1 47 21
M  V30 51 1 48 23
M  V30 52 1 49 23
M  V30 53 1 50 24
M  V30 54 1 51 22
M  V30 55 1 20 52 CFG=1
M  V30 56 1 53 22
M  V30 END BOND
M  V30 END CTAB
M  END
>  <i_epik_Tot_Q>  (1) 
1

>  <i_epik_Tot_abs_Q>  (1) 
1

>  <i_i_glide_confnum>  (1) 
23

>  <i_i_glide_lignum>  (1) 
94

>  <i_i_glide_posenum>  (1) 
71

>  <i_i_glide_rotatable_bonds>  (1) 
5

>  <i_lp_mmshare_version>  (1) 
72125

>  <i_m_source_file_index>  (1) 
50

>  <i_f3d_flags>  (1) 
0

>  <num_sample>  (1) 
100

>  <b_lp_Chiralities_Consistent>  (1) 
1

>  <r_epik_Charging_Adjusted_Penalty>  (1) 
1.8117775797116225

>  <r_epik_Ionization_Penalty>  (1) 
0.90588925903239437

>  <r_epik_Ionization_Penalty_Charging>  (1) 
0.90588878985581123

>  <r_epik_Ionization_Penalty_Neutral>  (1) 
4.6917658313918283e-07

>  <r_epik_State_Penalty>  (1) 
0.90588878985581134

>  <r_glide_ring_energy>  (1) 
0.012110018449817897

>  <r_i_docking_score>  (1) 
-4.6865788026922033

>  <r_i_glide_ecoul>  (1) 
-3.3875087764043839

>  <r_i_glide_eff_state_penalty>  (1) 
0.90588878985581134

>  <r_i_glide_einternal>  (1) 
2.0919169617588036

>  <r_i_glide_emodel>  (1) 
-39.417042940502277

>  <r_i_glide_emodel_strain>  (1) 
0

>  <r_i_glide_energy>  (1) 
-29.856834581104781

>  <r_i_glide_erotb>  (1) 
0.63659216225735071

>  <r_i_glide_esite>  (1) 
-0.008113255605247947

>  <r_i_glide_evdw>  (1) 
-26.469325804700397

>  <r_i_glide_gscore>  (1) 
-5.5924675925480143

>  <r_i_glide_gscore_strain>  (1) 
0

>  <r_i_glide_hbond>  (1) 
0

>  <r_i_glide_ligand_efficiency>  (1) 
-0.19527411677884179

>  <r_i_glide_ligand_efficiency_ln>  (1) 
-1.121713360572453

>  <r_i_glide_ligand_efficiency_sa>  (1) 
-0.56326802203288651

>  <r_i_glide_lipo>  (1) 
-2.4361556879589847

>  <r_i_glide_metal>  (1) 
-0

>  <r_i_glide_rewards>  (1) 
-1.9531982045454552

>  <r_lp_Energy>  (1) 
30.269361

>  <r_lp_tautomer_probability>  (1) 
0.99998600000000004

>  <s_epik_Chemistry_Notes>  (1) 
This compound has an imine and may undergo hydrolysis. This compound contains an acetal/aminal-like group ( X-CH(R)-Y where X, Y are N, S, or O) that may be acid/base labile, releasing an aldehyde.

>  <s_epik_cmdline>  (1) 
J2VwaWtfcHl0aG9uJywgJy1waHQnLCAnMS4wJywgJy1waCcsICc3LjQnLCAnLXRuJywgJzgnLCAnLW1hJywgJzUwMCcsICctaW1hZScsICc8aW5maWxlLm1hZT4nLCAnLW9tYWUnLCAnPG91dGZpbGUubWFlPic=

>  <s_epik_input>  (1) 
W2NIXTFbY0hdW2NIXVtjSF1bY0hdYzFbQ0BASF0oW05IXTIpU1tDQEBIXShbQ0BIXTIzKVtDSDJdW0NIMl1OPUMzW0NIMl1bQ0BIXTRbQ0gyXVtDSDJdW0NASF0oW0NIMl1bQ0gyXTQpW0NIMl1bT0hd

>  <s_glide_docking_method>  (1) 
confgen

>  <s_i_glide_gridfile>  (1) 
gpcr_drd2_6luq_protein_autoprepared_prepared

>  <s_lp_Force_Field>  (1) 
S-OPLS

>  <s_lp_Variant>  (1) 
DiffSBDD_49_num_sample_100-4

>  <s_m_source_file>  (1) 
generated__ligand_DiffSBDD_2026-05-06_prepared.sdf

>  <GenAI_Model>  (1) 
DiffSBDD

>  <Protein>  (1) 
generic_title2

$$$$
DiffSBDD_26_num_sample_100
     RDKit          3D

  0  0  0  0  0  0  0  0  0  0999 V3000
M  V30 BEGIN CTAB
M  V30 COUNTS 72 77 0 0 1
M  V30 BEGIN ATOM
M  V30 1 C 10.432303 7.607077 -6.409732 0
M  V30 2 C 5.851291 -1.672981 -19.292627 0
M  V30 3 C 7.201647 2.890240 -13.857678 0
M  V30 4 C 5.719288 1.337809 -19.538087 0
M  V30 5 F 6.882895 4.799669 -19.126352 0
M  V30 6 C 8.824988 5.233401 -10.512181 0 CFG=1
M  V30 7 C 8.117469 5.131834 -13.734352 0
M  V30 8 N 4.834362 -3.551188 -20.077324 0
M  V30 9 C 8.756447 8.545316 -11.657841 0
M  V30 10 C 10.009724 7.771037 -11.227816 0 CFG=1
M  V30 11 C 10.742481 8.448108 -10.010329 0
M  V30 12 C 6.551814 0.664150 -18.610596 0
M  V30 13 C 5.258575 -2.930570 -18.986170 0
M  V30 14 C 7.600127 2.795314 -18.026143 0
M  V30 15 N 6.234925 -0.695139 -21.592043 0
M  V30 16 C 5.775000 -1.616839 -20.663927 0
M  V30 17 O 5.148365 -2.713404 -21.154843 0
M  V30 18 C 6.486194 1.708734 -13.241662 0
M  V30 19 C 10.533878 6.318125 -8.587605 0 CFG=2
M  V30 20 C 5.071829 -3.575388 -17.644876 0
M  V30 21 N 6.440261 -0.724206 -18.395352 0
M  V30 22 C 9.361269 6.212301 -9.541460 0 CFG=1
M  V30 23 C 10.012983 6.592891 -7.183603 0
M  V30 24 C 7.366893 5.250591 -10.953713 0
M  V30 25 C 5.837669 2.730756 -19.712051 0
M  V30 26 C 8.502130 4.987370 -15.078266 0
M  V30 27 C 11.486235 8.609601 -6.829733 0
M  V30 28 C 9.818411 6.275783 -11.015609 0 CFG=1
M  V30 29 C 8.611893 3.579862 -17.197835 0
M  V30 30 C 6.776898 3.459804 -18.958838 0
M  V30 31 C 7.483276 1.399647 -17.854389 0
M  V30 32 C 12.328983 8.101586 -8.007369 0
M  V30 33 O 7.035110 4.135038 -11.783056 0
M  V30 34 C 7.448493 4.059584 -13.102931 0
M  V30 35 C 11.498019 7.431121 -9.118465 0 CFG=2
M  V30 36 C 8.206597 3.781652 -15.741527 0
M  V30 37 N 7.572172 2.744064 -15.147820 0
M  V30 38 H 10.004411 7.737702 -5.428374 0
M  V30 39 H 6.069176 -0.788616 -22.583238 0
M  V30 40 H 4.978364 0.795065 -20.101359 0
M  V30 41 H 9.206857 4.222625 -10.379819 0
M  V30 42 H 8.330188 6.042393 -13.206831 0
M  V30 43 H 8.234756 8.969111 -10.802207 0
M  V30 44 H 8.055688 7.950864 -12.235630 0
M  V30 45 H 9.034761 9.375111 -12.292759 0
M  V30 46 H 10.682656 7.769296 -12.082155 0
M  V30 47 H 11.442276 9.215655 -10.332115 0
M  V30 48 H 10.013714 8.967385 -9.385486 0
M  V30 49 H 6.714378 0.151795 -21.325947 0
M  V30 50 H 5.435404 1.946640 -13.091578 0
M  V30 51 H 6.937006 1.436546 -12.291661 0
M  V30 52 H 6.540886 0.835308 -13.892302 0
M  V30 53 H 11.034837 5.369246 -8.501117 0
M  V30 54 H 5.353942 -2.902254 -16.835014 0
M  V30 55 H 5.678046 -4.476030 -17.550167 0
M  V30 56 H 6.763370 -1.055790 -17.496534 0
M  V30 57 H 8.634834 6.946609 -9.245673 0
M  V30 58 H 9.253643 5.919330 -6.811955 0
M  V30 59 H 6.753353 5.160564 -10.056422 0
M  V30 60 H 7.079147 6.197220 -11.403447 0
M  V30 61 H 5.200572 3.241724 -20.419122 0
M  V30 62 H 9.015224 5.785304 -15.591204 0
M  V30 63 H 12.130610 8.831975 -5.979577 0
M  V30 64 H 10.993065 9.540236 -7.091287 0
M  V30 65 H 10.634705 5.737507 -11.491642 0
M  V30 66 H 9.562340 3.045364 -17.212507 0
M  V30 67 H 8.806471 4.547183 -17.660339 0
M  V30 68 H 8.111686 0.892800 -17.135886 0
M  V30 69 H 12.934874 8.911658 -8.415536 0
M  V30 70 H 13.034692 7.369338 -7.626155 0
M  V30 71 H 12.221203 6.969349 -9.788703 0
M  V30 72 H 4.030722 -3.857767 -17.491142 0
M  V30 END ATOM
M  V30 BEGIN BOND
M  V30 1 1 10 9
M  V30 2 1 11 10
M  V30 3 1 12 4
M  V30 4 1 13 2
M  V30 5 2 13 8
M  V30 6 2 16 2
M  V30 7 1 16 15
M  V30 8 1 17 8
M  V30 9 1 17 16
M  V30 10 1 18 3
M  V30 11 1 20 13
M  V30 12 1 21 2
M  V30 13 1 21 12
M  V30 14 1 22 6
M  V30 15 1 22 19
M  V30 16 2 23 1
M  V30 17 1 23 19
M  V30 18 1 24 6
M  V30 19 2 25 4
M  V30 20 2 26 7
M  V30 21 1 27 1
M  V30 22 1 28 6
M  V30 23 1 28 10
M  V30 24 1 28 22
M  V30 25 1 29 14
M  V30 26 1 30 5
M  V30 27 2 30 14
M  V30 28 1 30 25
M  V30 29 2 31 12
M  V30 30 1 31 14
M  V30 31 1 32 27
M  V30 32 1 33 24
M  V30 33 2 34 3
M  V30 34 1 34 7
M  V30 35 1 34 33
M  V30 36 1 35 11
M  V30 37 1 35 19
M  V30 38 1 35 32
M  V30 39 1 36 26
M  V30 40 1 36 29
M  V30 41 1 37 3
M  V30 42 2 37 36
M  V30 43 1 38 1
M  V30 44 1 39 15
M  V30 45 1 40 4
M  V30 46 1 6 41 CFG=1
M  V30 47 1 42 7
M  V30 48 1 43 9
M  V30 49 1 44 9
M  V30 50 1 45 9
M  V30 51 1 10 46 CFG=3
M  V30 52 1 47 11
M  V30 53 1 48 11
M  V30 54 1 49 15
M  V30 55 1 50 18
M  V30 56 1 51 18
M  V30 57 1 52 18
M  V30 58 1 19 53 CFG=1
M  V30 59 1 54 20
M  V30 60 1 55 20
M  V30 61 1 56 21
M  V30 62 1 22 57 CFG=1
M  V30 63 1 58 23
M  V30 64 1 59 24
M  V30 65 1 60 24
M  V30 66 1 61 25
M  V30 67 1 62 26
M  V30 68 1 63 27
M  V30 69 1 64 27
M  V30 70 1 28 65 CFG=1
M  V30 71 1 66 29
M  V30 72 1 67 29
M  V30 73 1 68 31
M  V30 74 1 69 32
M  V30 75 1 70 32
M  V30 76 1 35 71 CFG=3
M  V30 77 1 72 20
M  V30 END BOND
M  V30 END CTAB
M  END
>  <i_epik_Tot_Q>  (1) 
0

>  <i_epik_Tot_abs_Q>  (1) 
0

>  <i_i_glide_confnum>  (1) 
14

>  <i_i_glide_lignum>  (1) 
42

>  <i_i_glide_posenum>  (1) 
255

>  <i_i_glide_rotatable_bonds>  (1) 
7

>  <i_lp_mmshare_version>  (1) 
72125

>  <i_m_source_file_index>  (1) 
27

>  <i_f3d_flags>  (1) 
0

>  <num_sample>  (1) 
100

>  <b_lp_Chiralities_Consistent>  (1) 
1

>  <r_epik_Charging_Adjusted_Penalty>  (1) 
0

>  <r_epik_Ionization_Penalty>  (1) 
0.044548018534552827

>  <r_epik_Ionization_Penalty_Charging>  (1) 
0

>  <r_epik_Ionization_Penalty_Neutral>  (1) 
0.044548018534552827

>  <r_epik_State_Penalty>  (1) 
-0

>  <r_glide_ring_energy>  (1) 
0

>  <r_i_docking_score>  (1) 
-4.6835244471759179

>  <r_i_glide_ecoul>  (1) 
-1.6426478368538922

>  <r_i_glide_eff_state_penalty>  (1) 
-0

>  <r_i_glide_einternal>  (1) 
4.6294414333255673

>  <r_i_glide_emodel>  (1) 
-43.450540916650624

>  <r_i_glide_emodel_strain>  (1) 
1.4890653717014999

>  <r_i_glide_energy>  (1) 
-37.48497104487322

>  <r_i_glide_erotb>  (1) 
0.5661782271396133

>  <r_i_glide_esite>  (1) 
-0.028146232511745958

>  <r_i_glide_evdw>  (1) 
-35.84232320801933

>  <r_i_glide_gscore>  (1) 
-4.6835244471759179

>  <r_i_glide_gscore_strain>  (1) 
0

>  <r_i_glide_hbond>  (1) 
0

>  <r_i_glide_ligand_efficiency>  (1) 
-0.12658174181556534

>  <r_i_glide_ligand_efficiency_ln>  (1) 
-1.015746655201254

>  <r_i_glide_ligand_efficiency_sa>  (1) 
-0.42179844609723322

>  <r_i_glide_lipo>  (1) 
-2.2428581350466263

>  <r_i_glide_metal>  (1) 
-0

>  <r_i_glide_rewards>  (1) 
-0.94018497082810792

>  <r_lp_Energy>  (1) 
68.245464999999996

>  <r_lp_tautomer_probability>  (1) 
1

>  <s_epik_cmdline>  (1) 
J2VwaWtfcHl0aG9uJywgJy1waHQnLCAnMS4wJywgJy1waCcsICc3LjQnLCAnLXRuJywgJzgnLCAnLW1hJywgJzUwMCcsICctaW1hZScsICc8aW5maWxlLm1hZT4nLCAnLW9tYWUnLCAnPG91dGZpbGUubWFlPic=

>  <s_epik_input>  (1) 
W0NIXTE9W0NIXVtDSDJdW0NIMl1bQ0BASF0yW0NIMl1bQ0BIXShbQ0gzXSlbQ0hdKFtDQEBIXTNbQ0BIXTEyKVtDQEBIXTNbQ0gyXU9jKGM0W0NIM10pW2NIXVtjSF1jKG40KVtDSDJdYyhbY0hdNSljKEYpW2NIXVtjSF1jNVtOSF1bQ0BIXTZDKD1bQ0gyXSlbTkhdT0MvNj1OXFtIXQ==

>  <s_glide_docking_method>  (1) 
confgen

>  <s_i_glide_gridfile>  (1) 
gpcr_drd2_6luq_protein_autoprepared_prepared

>  <s_lp_Force_Field>  (1) 
S-OPLS

>  <s_lp_Variant>  (1) 
DiffSBDD_26_num_sample_100-2

>  <s_m_source_file>  (1) 
generated__ligand_DiffSBDD_2026-05-06_prepared.sdf

>  <GenAI_Model>  (1) 
DiffSBDD

>  <Protein>  (1) 
generic_title2

$$$$
DiffSBDD_4_num_sample_100
     RDKit          3D

  0  0  0  0  0  0  0  0  0  0999 V3000
M  V30 BEGIN CTAB
M  V30 COUNTS 57 60 0 0 1
M  V30 BEGIN ATOM
M  V30 1 C 9.034840 6.045528 -9.593442 0
M  V30 2 C 5.778442 7.143401 -20.735975 0
M  V30 3 C 8.272982 5.378021 -11.955735 0 CFG=2
M  V30 4 F 7.141847 3.928367 -20.808136 0
M  V30 5 C 5.600355 6.264499 -18.470007 0
M  V30 6 C 8.967004 4.715009 -13.168720 0
M  V30 7 C 5.316869 7.220972 -19.373325 0
M  V30 8 C 5.112459 6.348676 -17.034947 0
M  V30 9 C 7.942552 3.975661 -14.054233 0
M  V30 10 C 7.277164 5.958514 -15.621639 0 CFG=2
M  V30 11 O 9.732513 6.697485 -7.376425 0
M  V30 12 C 7.113991 6.285874 -12.413199 0
M  V30 13 C 6.125957 5.517127 -13.310078 0
M  V30 14 C 8.049750 5.369204 -16.835102 0
M  V30 15 C 7.888772 5.223784 -9.012457 0
M  V30 16 F 8.450687 5.413420 -19.972221 0
M  V30 17 C 11.147985 7.585835 -10.653095 0
M  V30 18 C 6.406932 5.009639 -18.845504 0 CFG=2
M  V30 19 C 10.963953 7.510938 -9.262373 0
M  V30 20 C 6.809706 4.906095 -14.558945 0 CFG=2
M  V30 21 C 9.220347 6.123033 -11.002213 0
M  V30 22 C 6.173890 6.939660 -16.093228 0
M  V30 23 C 10.277518 6.902286 -11.522861 0
M  V30 24 C 7.264634 4.380576 -17.717640 0
M  V30 25 C 7.171573 5.118083 -20.206416 0
M  V30 26 C 6.617651 6.181733 -21.137315 0
M  V30 27 C 9.910055 6.749283 -8.729245 0
M  V30 28 H 5.443194 7.881796 -21.449402 0
M  V30 29 H 7.831147 4.541681 -11.418950 0
M  V30 30 H 9.496946 5.444083 -13.778589 0
M  V30 31 H 9.721099 4.010548 -12.815595 0
M  V30 32 H 4.725019 8.072486 -19.069363 0
M  V30 33 H 4.768999 5.374197 -16.703526 0
M  V30 34 H 4.236152 6.997686 -17.012387 0
M  V30 35 H 7.500448 3.167477 -13.470006 0
M  V30 36 H 8.442224 3.476266 -14.881721 0
M  V30 37 H 8.000121 6.580426 -15.098070 0
M  V30 38 H 8.826524 6.528444 -7.157926 0
M  V30 39 H 6.582202 6.669316 -11.541538 0
M  V30 40 H 7.503105 7.161258 -12.932925 0
M  V30 41 H 5.690140 4.707524 -12.721901 0
M  V30 42 H 5.278757 6.147221 -13.571743 0
M  V30 43 H 8.424584 6.169273 -17.472250 0
M  V30 44 H 8.951746 4.875248 -16.475682 0
M  V30 45 H 6.946278 5.481169 -9.491730 0
M  V30 46 H 8.061885 4.169319 -9.183892 0
M  V30 47 H 7.748029 5.366512 -7.942993 0
M  V30 48 H 11.960234 8.169266 -11.054845 0
M  V30 49 H 5.613771 4.283191 -19.031398 0
M  V30 50 H 11.631928 8.042927 -8.601621 0
M  V30 51 H 6.067376 4.269662 -15.032624 0
M  V30 52 H 5.679877 7.397555 -15.239305 0
M  V30 53 H 6.634830 7.787547 -16.598471 0
M  V30 54 H 10.425527 6.972748 -12.588910 0
M  V30 55 H 6.649853 3.732487 -17.099376 0
M  V30 56 H 7.974390 3.693643 -18.180033 0
M  V30 57 H 6.947737 6.149935 -22.165608 0
M  V30 END ATOM
M  V30 BEGIN BOND
M  V30 1 1 6 3
M  V30 2 1 7 2
M  V30 3 2 7 5
M  V30 4 1 8 5
M  V30 5 1 9 6
M  V30 6 1 12 3
M  V30 7 1 13 12
M  V30 8 1 14 10
M  V30 9 1 15 1
M  V30 10 1 18 5
M  V30 11 2 19 17
M  V30 12 1 20 9
M  V30 13 1 20 10
M  V30 14 1 20 13
M  V30 15 1 21 1
M  V30 16 1 21 3
M  V30 17 1 22 8
M  V30 18 1 22 10
M  V30 19 1 23 17
M  V30 20 2 23 21
M  V30 21 1 24 14
M  V30 22 1 24 18
M  V30 23 1 25 4
M  V30 24 1 25 16
M  V30 25 1 25 18
M  V30 26 2 26 2
M  V30 27 1 26 25
M  V30 28 2 27 1
M  V30 29 1 27 11
M  V30 30 1 27 19
M  V30 31 1 28 2
M  V30 32 1 3 29 CFG=1
M  V30 33 1 30 6
M  V30 34 1 31 6
M  V30 35 1 32 7
M  V30 36 1 33 8
M  V30 37 1 34 8
M  V30 38 1 35 9
M  V30 39 1 36 9
M  V30 40 1 10 37 CFG=1
M  V30 41 1 38 11
M  V30 42 1 39 12
M  V30 43 1 40 12
M  V30 44 1 41 13
M  V30 45 1 42 13
M  V30 46 1 43 14
M  V30 47 1 44 14
M  V30 48 1 45 15
M  V30 49 1 46 15
M  V30 50 1 47 15
M  V30 51 1 48 17
M  V30 52 1 18 49 CFG=3
M  V30 53 1 50 19
M  V30 54 1 20 51 CFG=3
M  V30 55 1 52 22
M  V30 56 1 53 22
M  V30 57 1 54 23
M  V30 58 1 55 24
M  V30 59 1 56 24
M  V30 60 1 57 26
M  V30 END BOND
M  V30 END CTAB
M  END
>  <i_epik_Tot_Q>  (1) 
0

>  <i_epik_Tot_abs_Q>  (1) 
0

>  <i_i_glide_confnum>  (1) 
11

>  <i_i_glide_lignum>  (1) 
7

>  <i_i_glide_posenum>  (1) 
184

>  <i_i_glide_rotatable_bonds>  (1) 
3

>  <i_lp_mmshare_version>  (1) 
72125

>  <i_m_source_file_index>  (1) 
5

>  <i_f3d_flags>  (1) 
0

>  <num_sample>  (1) 
100

>  <b_lp_Chiralities_Consistent>  (1) 
1

>  <r_epik_Charging_Adjusted_Penalty>  (1) 
0

>  <r_epik_Ionization_Penalty>  (1) 
0.00041943368611793887

>  <r_epik_Ionization_Penalty_Charging>  (1) 
0

>  <r_epik_Ionization_Penalty_Neutral>  (1) 
0.00041943368611793887

>  <r_epik_State_Penalty>  (1) 
-0

>  <r_glide_ring_energy>  (1) 
0

>  <r_i_docking_score>  (1) 
-4.6831297299300214

>  <r_i_glide_ecoul>  (1) 
-0.7168673781605106

>  <r_i_glide_eff_state_penalty>  (1) 
-0

>  <r_i_glide_einternal>  (1) 
1.9329823444356258

>  <r_i_glide_emodel>  (1) 
-30.33325995319246

>  <r_i_glide_emodel_strain>  (1) 
0.17293040673207827

>  <r_i_glide_energy>  (1) 
-24.874649894214482

>  <r_i_glide_erotb>  (1) 
0.27839532851763049

>  <r_i_glide_esite>  (1) 
0

>  <r_i_glide_evdw>  (1) 
-24.15778251605397

>  <r_i_glide_gscore>  (1) 
-4.6831297299300214

>  <r_i_glide_gscore_strain>  (1) 
0

>  <r_i_glide_hbond>  (1) 
0

>  <r_i_glide_ligand_efficiency>  (1) 
-0.17344924925666746

>  <r_i_glide_ligand_efficiency_ln>  (1) 
-1.0901553937000228

>  <r_i_glide_ligand_efficiency_sa>  (1) 
-0.52034774777000248

>  <r_i_glide_lipo>  (1) 
-1.9067562836296066

>  <r_i_glide_metal>  (1) 
-0

>  <r_i_glide_rewards>  (1) 
-1.7393495422912699

>  <r_lp_Energy>  (1) 
44.730646999999998

>  <r_lp_tautomer_probability>  (1) 
1

>  <s_epik_cmdline>  (1) 
J2VwaWtfcHl0aG9uJywgJy1waHQnLCAnMS4wJywgJy1waCcsICc3LjQnLCAnLXRuJywgJzgnLCAnLW1hJywgJzUwMCcsICctaW1hZScsICc8aW5maWxlLm1hZT4nLCAnLW9tYWUnLCAnPG91dGZpbGUubWFlPic=

>  <s_epik_input>  (1) 
W09IXWMxW2NIXVtjSF1bY0hdYyhjMVtDSDNdKVtDQEBIXTJbQ0gyXVtDSDJdW0NAQEhdKFtDSDJdW0NIMl0yKVtDQEhdKFtDSDJdW0NIMl0zKVtDSDJdW0NIMl1bQ0BASF0oQzM9NClDKEYpKEYpW0NIXT1bQ0hdW0NIXTQ=

>  <s_glide_docking_method>  (1) 
confgen

>  <s_i_glide_gridfile>  (1) 
gpcr_drd2_6luq_protein_autoprepared_prepared

>  <s_lp_Force_Field>  (1) 
S-OPLS

>  <s_lp_Variant>  (1) 
DiffSBDD_4_num_sample_100-1

>  <s_m_source_file>  (1) 
generated__ligand_DiffSBDD_2026-05-06_prepared.sdf

>  <GenAI_Model>  (1) 
DiffSBDD

>  <Protein>  (1) 
generic_title2

$$$$
DiffSBDD_33_num_sample_100
     RDKit          3D

  0  0  0  0  0  0  0  0  0  0999 V3000
M  V30 BEGIN CTAB
M  V30 COUNTS 82 83 0 0 1
M  V30 BEGIN ATOM
M  V30 1 C 7.882472 5.394100 -16.704482 0
M  V30 2 C 5.911021 4.015534 -21.739116 0
M  V30 3 C 5.241955 5.538482 -19.463131 0
M  V30 4 C 9.476817 6.429778 -6.811243 0
M  V30 5 C 6.023187 6.179976 -15.120170 0
M  V30 6 C 4.876753 6.357012 -18.234796 0
M  V30 7 C 5.790391 4.250008 -19.311780 0
M  V30 8 C 6.734620 6.104908 -16.476547 0
M  V30 9 C 8.606328 4.589675 -15.709455 0
M  V30 10 C 8.153131 4.169208 -14.551233 0
M  V30 11 C 6.708906 7.195275 -14.176973 0
M  V30 12 C 8.613622 3.519927 -12.205094 0
M  V30 13 C 10.564319 8.549252 -8.780978 0
M  V30 14 C 6.117393 7.308835 -12.749270 0
M  V30 15 C 10.894754 6.220691 -6.246980 0
M  V30 16 C 5.893647 1.164275 -19.354836 0 CFG=2
M  V30 17 C 6.116180 6.964020 -17.570722 0
M  V30 18 C 11.793857 9.129078 -9.491415 0
M  V30 19 C 7.706791 3.727871 -13.398724 0
M  V30 20 C 5.367630 5.306355 -21.889350 0
M  V30 21 C 9.344274 6.257267 -8.342779 0 CFG=1
M  V30 22 C 6.362275 6.108122 -11.820491 0
M  V30 23 C 6.487792 -0.242400 -19.186146 0
M  V30 24 O 4.601323 0.995671 -19.891510 0
M  V30 25 C 5.034485 6.067612 -20.753154 0
M  V30 26 N 8.101884 2.239625 -19.797192 0 CHG=1
M  V30 27 C 10.424719 7.059220 -9.114096 0
M  V30 28 C 6.124208 3.484191 -20.448592 0
M  V30 29 C 6.720060 2.090121 -20.285229 0 CFG=2
M  V30 30 C 7.860692 5.873660 -11.489727 0
M  V30 31 O 12.976922 8.567207 -8.959399 0
M  V30 32 O 9.342977 4.868648 -8.678661 0
M  V30 33 C 8.226423 4.449371 -11.001057 0 CFG=2
M  V30 34 C 9.448185 4.468966 -10.056185 0
M  V30 35 H 8.320820 5.470347 -17.689772 0
M  V30 36 H 6.165039 3.434658 -22.613851 0
M  V30 37 H 8.772191 5.769415 -6.313004 0
M  V30 38 H 9.145097 7.430922 -6.534160 0
M  V30 39 H 5.023890 6.556149 -15.305019 0
M  V30 40 H 5.831803 5.211234 -14.675477 0
M  V30 41 H 4.209833 7.163981 -18.543554 0
M  V30 42 H 4.304410 5.770258 -17.514771 0
M  V30 43 H 5.952478 3.849801 -18.322973 0
M  V30 44 H 9.641155 4.387412 -15.944534 0
M  V30 45 H 7.776250 6.997695 -14.124885 0
M  V30 46 H 6.647506 8.168967 -14.659878 0
M  V30 47 H 9.638865 3.743940 -12.514710 0
M  V30 48 H 8.634998 2.471402 -11.921338 0
M  V30 49 H 10.649805 8.726598 -7.712310 0
M  V30 50 H 9.662071 9.068261 -9.103073 0
M  V30 51 H 6.555000 8.169765 -12.250061 0
M  V30 52 H 5.046094 7.504982 -12.815538 0
M  V30 53 H 10.873023 6.067601 -5.168526 0
M  V30 54 H 11.529412 7.084690 -6.432109 0
M  V30 55 H 11.391092 5.367915 -6.700040 0
M  V30 56 H 5.780934 1.607275 -18.365406 0
M  V30 57 H 5.839172 7.910151 -17.102855 0
M  V30 58 H 6.859580 7.219187 -18.327445 0
M  V30 59 H 11.753173 8.901993 -10.554513 0
M  V30 60 H 11.831101 10.212687 -9.396980 0
M  V30 61 H 6.649203 3.656417 -13.208037 0
M  V30 62 H 5.206503 5.713127 -22.877879 0
M  V30 63 H 8.341689 6.569010 -8.597543 0
M  V30 64 H 5.832390 6.267231 -10.880131 0
M  V30 65 H 5.871675 5.237905 -12.236515 0
M  V30 66 H 7.457855 -0.215007 -18.690247 0
M  V30 67 H 6.611804 -0.749174 -20.143322 0
M  V30 68 H 5.837583 -0.863431 -18.568086 0
M  V30 69 H 4.642502 0.583815 -20.744651 0
M  V30 70 H 4.615579 7.057536 -20.871356 0
M  V30 71 H 8.613666 2.830372 -20.436690 0
M  V30 72 H 8.541458 1.332247 -19.741548 0
M  V30 73 H 11.385298 6.569178 -8.960592 0
M  V30 74 H 10.238996 7.027463 -10.184742 0
M  V30 75 H 6.782022 1.625178 -21.270918 0
M  V30 76 H 8.508789 6.118993 -12.326933 0
M  V30 77 H 8.141048 6.601522 -10.741973 0
M  V30 78 H 13.118647 8.924920 -8.096492 0
M  V30 79 H 7.365537 4.050775 -10.464148 0
M  V30 80 H 10.234838 4.995402 -10.578615 0
M  V30 81 H 9.834840 3.454825 -9.995644 0
M  V30 82 H 8.089770 2.669574 -18.883489 0
M  V30 END ATOM
M  V30 BEGIN BOND
M  V30 1 1 6 3
M  V30 2 2 7 3
M  V30 3 2 8 1
M  V30 4 1 8 5
M  V30 5 1 9 1
M  V30 6 2 10 9
M  V30 7 1 11 5
M  V30 8 1 14 11
M  V30 9 1 15 4
M  V30 10 1 17 6
M  V30 11 1 17 8
M  V30 12 1 18 13
M  V30 13 2 19 10
M  V30 14 1 19 12
M  V30 15 1 20 2
M  V30 16 1 21 4
M  V30 17 1 22 14
M  V30 18 1 23 16
M  V30 19 1 24 16
M  V30 20 1 25 3
M  V30 21 2 25 20
M  V30 22 1 27 13
M  V30 23 1 27 21
M  V30 24 2 28 2
M  V30 25 1 28 7
M  V30 26 1 29 16
M  V30 27 1 29 26
M  V30 28 1 29 28
M  V30 29 1 30 22
M  V30 30 1 31 18
M  V30 31 1 32 21
M  V30 32 1 33 12
M  V30 33 1 33 30
M  V30 34 1 34 32
M  V30 35 1 34 33
M  V30 36 1 35 1
M  V30 37 1 36 2
M  V30 38 1 37 4
M  V30 39 1 38 4
M  V30 40 1 39 5
M  V30 41 1 40 5
M  V30 42 1 41 6
M  V30 43 1 42 6
M  V30 44 1 43 7
M  V30 45 1 44 9
M  V30 46 1 45 11
M  V30 47 1 46 11
M  V30 48 1 47 12
M  V30 49 1 48 12
M  V30 50 1 49 13
M  V30 51 1 50 13
M  V30 52 1 51 14
M  V30 53 1 52 14
M  V30 54 1 53 15
M  V30 55 1 54 15
M  V30 56 1 55 15
M  V30 57 1 16 56 CFG=1
M  V30 58 1 57 17
M  V30 59 1 58 17
M  V30 60 1 59 18
M  V30 61 1 60 18
M  V30 62 1 61 19
M  V30 63 1 62 20
M  V30 64 1 21 63 CFG=3
M  V30 65 1 64 22
M  V30 66 1 65 22
M  V30 67 1 66 23
M  V30 68 1 67 23
M  V30 69 1 68 23
M  V30 70 1 69 24
M  V30 71 1 70 25
M  V30 72 1 71 26
M  V30 73 1 72 26
M  V30 74 1 73 27
M  V30 75 1 74 27
M  V30 76 1 29 75 CFG=3
M  V30 77 1 76 30
M  V30 78 1 77 30
M  V30 79 1 78 31
M  V30 80 1 33 79 CFG=1
M  V30 81 1 80 34
M  V30 82 1 81 34
M  V30 83 1 82 26
M  V30 END BOND
M  V30 END CTAB
M  END
>  <i_epik_Tot_Q>  (1) 
1

>  <i_epik_Tot_abs_Q>  (1) 
1

>  <i_i_glide_confnum>  (1) 
448

>  <i_i_glide_lignum>  (1) 
58

>  <i_i_glide_posenum>  (1) 
55

>  <i_i_glide_rotatable_bonds>  (1) 
14

>  <i_lp_mmshare_version>  (1) 
72125

>  <i_m_source_file_index>  (1) 
34

>  <i_f3d_flags>  (1) 
0

>  <num_sample>  (1) 
100

>  <b_lp_Chiralities_Consistent>  (1) 
1

>  <r_epik_Charging_Adjusted_Penalty>  (1) 
0.1638001962036823

>  <r_epik_Ionization_Penalty>  (1) 
0.081900497226930546

>  <r_epik_Ionization_Penalty_Charging>  (1) 
0.081900098101841165

>  <r_epik_Ionization_Penalty_Neutral>  (1) 
3.991250893861813e-07

>  <r_epik_State_Penalty>  (1) 
0.081900098101841151

>  <r_glide_ring_energy>  (1) 
0

>  <r_i_docking_score>  (1) 
-4.6767941192275124

>  <r_i_glide_ecoul>  (1) 
-3.4234986349377063

>  <r_i_glide_eff_state_penalty>  (1) 
0.081900098101841151

>  <r_i_glide_einternal>  (1) 
8.5104581451476484

>  <r_i_glide_emodel>  (1) 
-34.054393079476974

>  <r_i_glide_emodel_strain>  (1) 
0.60360723935322369

>  <r_i_glide_energy>  (1) 
-35.975276138278723

>  <r_i_glide_erotb>  (1) 
1.0031588910435418

>  <r_i_glide_esite>  (1) 
0

>  <r_i_glide_evdw>  (1) 
-32.551777503341015

>  <r_i_glide_gscore>  (1) 
-4.7586942173293538

>  <r_i_glide_gscore_strain>  (1) 
0

>  <r_i_glide_hbond>  (1) 
-0.20692547764925476

>  <r_i_glide_ligand_efficiency>  (1) 
-0.13755276821257389

>  <r_i_glide_ligand_efficiency_ln>  (1) 
-1.0332350005690516

>  <r_i_glide_ligand_efficiency_sa>  (1) 
-0.44561757119984075

>  <r_i_glide_lipo>  (1) 
-2.600007804293655

>  <r_i_glide_metal>  (1) 
-0

>  <r_i_glide_rewards>  (1) 
-0.81380615602228012

>  <r_lp_Energy>  (1) 
13.020887999999999

>  <s_epik_cmdline>  (1) 
J2VwaWtfcHl0aG9uJywgJy1waHQnLCAnMS4wJywgJy1waCcsICc3LjQnLCAnLXRuJywgJzgnLCAnLW1hJywgJzUwMCcsICctaW1hZScsICc8aW5maWxlLm1hZT4nLCAnLW9tYWUnLCAnPG91dGZpbGUubWFlPic=

>  <s_epik_input>  (1) 
W0NIM11bQ0BIXShbT0hdKVtDQEhdKFtOSDJdKWMoW2NIXVtjSF1bY0hdMSlbY0hdYzFbQ0gyXVtDSDJdQ1wyPVtDSF1cW0NIXT1DPVtDSF1bQ0gyXVtDQEhdKFtDSDJdW0NIMl1bQ0gyXVtDSDJdW0NIMl0yKVtDSDJdT1tDQEBIXShbQ0gyXVtDSDNdKVtDSDJdW0NIMl1bQ0gyXVtPSF0=

>  <s_glide_docking_method>  (1) 
confgen

>  <s_i_glide_gridfile>  (1) 
gpcr_drd2_6luq_protein_autoprepared_prepared

>  <s_lp_Force_Field>  (1) 
S-OPLS

>  <s_lp_Variant>  (1) 
DiffSBDD_33_num_sample_100-1

>  <s_m_source_file>  (1) 
generated__ligand_DiffSBDD_2026-05-06_prepared.sdf

>  <GenAI_Model>  (1) 
DiffSBDD

>  <Protein>  (1) 
generic_title2

$$$$
DiffSBDD_25_num_sample_100
     RDKit          3D

  0  0  0  0  0  0  0  0  0  0999 V3000
M  V30 BEGIN CTAB
M  V30 COUNTS 66 69 0 0 1
M  V30 BEGIN ATOM
M  V30 1 C 11.730741 8.383158 -7.283630 0
M  V30 2 C 7.545544 5.370802 -16.642769 0
M  V30 3 C 5.463938 6.318416 -15.352757 0
M  V30 4 C 8.239624 5.097767 -11.621529 0 CFG=2
M  V30 5 C 6.360009 5.949273 -20.579692 0
M  V30 6 O 5.435000 4.908051 -18.671880 0
M  V30 7 C 4.989615 6.249629 -18.654837 0 CFG=1
M  V30 8 C 6.398367 4.704415 -19.689081 0 CFG=2
M  V30 9 F 8.462881 5.594116 -15.701635 0
M  V30 10 C 7.752425 4.328239 -19.061086 0
M  V30 11 C 8.635340 5.493823 -8.526143 0
M  V30 12 C 5.918474 7.114797 -17.785405 0
M  V30 13 F 7.022493 4.172238 -16.392200 0
M  V30 14 C 5.886505 4.172780 -12.287406 0 CFG=1
M  V30 15 N 9.118900 5.874600 -7.288795 0
M  V30 16 C 6.494675 6.529608 -16.476974 0 CFG=2
M  V30 17 O 6.117929 5.769301 -10.691629 0
M  V30 18 C 9.100745 7.602447 -11.575423 0
M  V30 19 C 5.380829 4.431288 -13.690183 0
M  V30 20 F 6.543990 3.014587 -12.291671 0
M  V30 21 C 9.204503 6.177511 -11.003070 0 CFG=1
M  V30 22 C 6.414041 6.438352 -13.010173 0
M  V30 23 C 10.054253 6.771174 -7.595004 0
M  V30 24 C 8.946960 4.485667 -12.838781 0
M  V30 25 C 5.076393 6.632508 -20.134709 0
M  V30 26 O 10.238613 6.984087 -8.931124 0
M  V30 27 O 9.834831 3.559473 -12.291730 0
M  V30 28 C 8.342344 5.264341 -17.974941 0
M  V30 29 N 6.079495 5.624673 -14.188626 0 CFG=2 CHG=1
M  V30 30 C 9.302943 6.169312 -9.509336 0
M  V30 31 O 10.810902 7.459562 -6.717914 0
M  V30 32 C 6.731395 5.412472 -11.894634 0 CFG=1
M  V30 33 H 12.223636 8.939745 -6.485153 0
M  V30 34 H 12.504373 7.872910 -7.859477 0
M  V30 35 H 11.231858 9.108976 -7.928567 0
M  V30 36 H 4.624381 5.769282 -15.759781 0
M  V30 37 H 5.048911 7.279977 -15.044246 0
M  V30 38 H 8.186883 4.293151 -10.883718 0
M  V30 39 H 7.225655 6.587019 -20.402139 0
M  V30 40 H 6.356294 5.697171 -21.641310 0
M  V30 41 H 3.967471 6.307240 -18.278695 0
M  V30 42 H 6.040642 3.856675 -20.272699 0
M  V30 43 H 8.483614 4.212229 -19.860039 0
M  V30 44 H 7.647103 3.333574 -18.626837 0
M  V30 45 H 7.838136 4.772244 -8.612580 0
M  V30 46 H 5.422259 8.063843 -17.577901 0
M  V30 47 H 6.777686 7.369236 -18.392674 0
M  V30 48 H 5.034909 4.003257 -11.625562 0
M  V30 49 H 7.034748 7.377360 -16.072490 0
M  V30 50 H 6.572810 6.506724 -10.271639 0
M  V30 51 H 9.884893 8.238652 -11.163945 0
M  V30 52 H 9.243546 7.611029 -12.653608 0
M  V30 53 H 8.152062 8.079334 -11.340908 0
M  V30 54 H 4.302199 4.569798 -13.674540 0
M  V30 55 H 5.636782 3.572233 -14.291675 0
M  V30 56 H 10.211123 5.882447 -11.299195 0
M  V30 57 H 5.548268 7.042835 -12.735412 0
M  V30 58 H 7.220688 7.119036 -13.257894 0
M  V30 59 H 9.488955 5.234544 -13.416183 0
M  V30 60 H 8.300127 3.955965 -13.533023 0
M  V30 61 H 4.234690 6.207509 -20.680188 0
M  V30 62 H 5.079182 7.709217 -20.306068 0
M  V30 63 H 10.669754 3.634886 -12.746864 0
M  V30 64 H 8.594388 6.244565 -18.374884 0
M  V30 65 H 9.312576 4.827679 -17.726505 0
M  V30 66 H 6.963528 5.273228 -14.535657 0
M  V30 END ATOM
M  V30 BEGIN BOND
M  V30 1 1 7 6
M  V30 2 1 8 5
M  V30 3 1 8 6
M  V30 4 1 9 2
M  V30 5 1 10 8
M  V30 6 1 12 7
M  V30 7 1 13 2
M  V30 8 1 15 11
M  V30 9 1 16 2
M  V30 10 1 16 3
M  V30 11 1 16 12
M  V30 12 1 19 14
M  V30 13 1 20 14
M  V30 14 1 21 4
M  V30 15 1 21 18
M  V30 16 2 23 15
M  V30 17 1 24 4
M  V30 18 1 25 5
M  V30 19 1 25 7
M  V30 20 1 26 23
M  V30 21 1 27 24
M  V30 22 1 28 2
M  V30 23 1 28 10
M  V30 24 1 29 3
M  V30 25 1 29 19
M  V30 26 1 29 22
M  V30 27 2 30 11
M  V30 28 1 30 21
M  V30 29 1 30 26
M  V30 30 1 31 1
M  V30 31 1 31 23
M  V30 32 1 32 4
M  V30 33 1 32 14
M  V30 34 1 32 17 CFG=1
M  V30 35 1 32 22
M  V30 36 1 33 1
M  V30 37 1 34 1
M  V30 38 1 35 1
M  V30 39 1 36 3
M  V30 40 1 37 3
M  V30 41 1 4 38 CFG=1
M  V30 42 1 39 5
M  V30 43 1 40 5
M  V30 44 1 7 41 CFG=1
M  V30 45 1 8 42 CFG=3
M  V30 46 1 43 10
M  V30 47 1 44 10
M  V30 48 1 45 11
M  V30 49 1 46 12
M  V30 50 1 47 12
M  V30 51 1 14 48 CFG=1
M  V30 52 1 16 49 CFG=1
M  V30 53 1 50 17
M  V30 54 1 51 18
M  V30 55 1 52 18
M  V30 56 1 53 18
M  V30 57 1 54 19
M  V30 58 1 55 19
M  V30 59 1 21 56 CFG=3
M  V30 60 1 57 22
M  V30 61 1 58 22
M  V30 62 1 59 24
M  V30 63 1 60 24
M  V30 64 1 61 25
M  V30 65 1 62 25
M  V30 66 1 63 27
M  V30 67 1 64 28
M  V30 68 1 65 28
M  V30 69 1 29 66 CFG=3
M  V30 END BOND
M  V30 END CTAB
M  END
>  <i_epik_Tot_Q>  (1) 
1

>  <i_epik_Tot_abs_Q>  (1) 
1

>  <i_i_glide_confnum>  (1) 
12

>  <i_i_glide_lignum>  (1) 
38

>  <i_i_glide_posenum>  (1) 
293

>  <i_i_glide_rotatable_bonds>  (1) 
9

>  <i_lp_mmshare_version>  (1) 
72125

>  <i_m_source_file_index>  (1) 
26

>  <i_f3d_flags>  (1) 
0

>  <num_sample>  (1) 
100

>  <b_lp_Chiralities_Consistent>  (1) 
1

>  <r_epik_Charging_Adjusted_Penalty>  (1) 
0.21543991348680042

>  <r_epik_Ionization_Penalty>  (1) 
0.10772808098718631

>  <r_epik_Ionization_Penalty_Charging>  (1) 
0.10771995674340021

>  <r_epik_Ionization_Penalty_Neutral>  (1) 
8.124243786105112e-06

>  <r_epik_State_Penalty>  (1) 
0.10771995674340022

>  <r_glide_ring_energy>  (1) 
0

>  <r_i_docking_score>  (1) 
-4.6743356837264001

>  <r_i_glide_ecoul>  (1) 
-6.4398251654701566

>  <r_i_glide_eff_state_penalty>  (1) 
0.10771995674340022

>  <r_i_glide_einternal>  (1) 
12.136084332943327

>  <r_i_glide_emodel>  (1) 
-31.205818321652977

>  <r_i_glide_emodel_strain>  (1) 
2.4267454521265961

>  <r_i_glide_energy>  (1) 
-28.455902724740859

>  <r_i_glide_erotb>  (1) 
0.56277696399540145

>  <r_i_glide_esite>  (1) 
0

>  <r_i_glide_evdw>  (1) 
-22.016077559270702

>  <r_i_glide_gscore>  (1) 
-4.7820556404698005

>  <r_i_glide_gscore_strain>  (1) 
0

>  <r_i_glide_hbond>  (1) 
-0.45599999999999996

>  <r_i_glide_ligand_efficiency>  (1) 
-0.14607299011645

>  <r_i_glide_ligand_efficiency_ln>  (1) 
-1.0467111771647524

>  <r_i_glide_ligand_efficiency_sa>  (1) 
-0.46375283634998637

>  <r_i_glide_lipo>  (1) 
-1.7390632343260011

>  <r_i_glide_metal>  (1) 
-0

>  <r_i_glide_rewards>  (1) 
-1.0829917173551415

>  <r_lp_Energy>  (1) 
39.515628999999997

>  <s_epik_cmdline>  (1) 
J2VwaWtfcHl0aG9uJywgJy1waHQnLCAnMS4wJywgJy1waCcsICc3LjQnLCAnLXRuJywgJzgnLCAnLW1hJywgJzUwMCcsICctaW1hZScsICc8aW5maWxlLm1hZT4nLCAnLW9tYWUnLCAnPG91dGZpbGUubWFlPic=

>  <s_epik_input>  (1) 
W0NIM11PYzFuW2NIXWMobzEpW0NASF0oW0NIM10pW0NASF0oW0NIMl1bT0hdKVtDQF0yKFtPSF0pW0NASF0oRilbQ0gyXU4oW0NIMl0yKVtDSDJdW0NASF0oW0NIMl0zKUMoRikoRilbQ0gyXVtDSDJdW0NASF0oW0NIMl1bQ0gyXTQpT1tDQEBIXTM0

>  <s_glide_docking_method>  (1) 
confgen

>  <s_i_glide_gridfile>  (1) 
gpcr_drd2_6luq_protein_autoprepared_prepared

>  <s_lp_Force_Field>  (1) 
S-OPLS

>  <s_lp_Variant>  (1) 
DiffSBDD_25_num_sample_100-1

>  <s_m_source_file>  (1) 
generated__ligand_DiffSBDD_2026-05-06_prepared.sdf

>  <GenAI_Model>  (1) 
DiffSBDD

>  <Protein>  (1) 
generic_title2

$$$$
DiffSBDD_3_num_sample_100
     RDKit          3D

  0  0  0  0  0  0  0  0  0  0999 V3000
M  V30 BEGIN CTAB
M  V30 COUNTS 44 45 0 0 1
M  V30 BEGIN ATOM
M  V30 1 C 8.632400 5.369766 -9.554108 0
M  V30 2 O 8.327502 3.861253 -13.536283 0
M  V30 3 C 9.963387 8.921691 -6.624845 0
M  V30 4 O 10.894242 6.960989 -12.691578 0
M  V30 5 C 10.533836 8.022071 -7.706570 0
M  V30 6 C 8.503639 4.832928 -10.848035 0
M  V30 7 C 7.852330 4.761708 -8.414578 0
M  V30 8 C 11.001717 9.962072 -6.114202 0
M  V30 9 C 12.635281 9.029408 -4.322241 0
M  V30 10 O 9.579563 7.008445 -8.045405 0
M  V30 11 C 11.428371 6.652607 -4.755347 0
M  V30 12 C 9.242976 5.370608 -11.914988 0
M  V30 13 C 10.128132 6.454207 -11.683040 0
M  V30 14 C 11.859031 7.367448 -7.314425 0
M  V30 15 C 11.755736 6.263924 -6.228149 0
M  V30 16 C 11.386172 9.844782 -4.637178 0
M  V30 17 C 9.488059 6.471091 -9.322088 0
M  V30 18 C 10.235539 7.008088 -10.398303 0
M  V30 19 C 9.087699 4.793472 -13.273952 0
M  V30 20 C 12.341718 7.571550 -3.890765 0
M  V30 21 H 9.094641 9.369786 -7.093658 0
M  V30 22 H 9.508739 8.359003 -5.823254 0
M  V30 23 H 10.975733 6.391421 -13.443018 0
M  V30 24 H 10.712264 8.725701 -8.513856 0
M  V30 25 H 7.838091 4.001258 -11.019533 0
M  V30 26 H 7.034839 4.147434 -8.794760 0
M  V30 27 H 8.530791 4.121952 -7.858959 0
M  V30 28 H 7.448826 5.504182 -7.732132 0
M  V30 29 H 11.892222 10.006583 -6.734466 0
M  V30 30 H 10.634876 10.969189 -6.255706 0
M  V30 31 H 13.359833 9.111602 -5.125849 0
M  V30 32 H 13.127917 9.507135 -3.474772 0
M  V30 33 H 11.397840 5.712914 -4.209520 0
M  V30 34 H 10.399213 6.973120 -4.677780 0
M  V30 35 H 12.233202 6.969256 -8.246036 0
M  V30 36 H 12.633605 8.093974 -7.091528 0
M  V30 37 H 12.634801 5.632205 -6.254199 0
M  V30 38 H 10.972697 5.584659 -6.556192 0
M  V30 39 H 11.434749 10.865681 -4.291704 0
M  V30 40 H 10.634835 9.430296 -4.006767 0
M  V30 41 H 10.905599 7.834075 -10.244935 0
M  V30 42 H 9.705486 5.265836 -14.035939 0
M  V30 43 H 13.280102 7.082347 -3.653782 0
M  V30 44 H 11.853921 7.630972 -2.916948 0
M  V30 END ATOM
M  V30 BEGIN BOND
M  V30 1 1 5 3
M  V30 2 2 6 1
M  V30 3 1 7 1
M  V30 4 1 8 3
M  V30 5 1 10 5
M  V30 6 1 12 6
M  V30 7 1 13 4
M  V30 8 2 13 12
M  V30 9 1 14 5
M  V30 10 1 15 11
M  V30 11 1 15 14
M  V30 12 1 16 8
M  V30 13 1 16 9
M  V30 14 1 17 1
M  V30 15 1 17 10
M  V30 16 1 18 13
M  V30 17 2 18 17
M  V30 18 2 19 2
M  V30 19 1 19 12
M  V30 20 1 20 9
M  V30 21 1 20 11
M  V30 22 1 21 3
M  V30 23 1 22 3
M  V30 24 1 23 4
M  V30 25 1 24 5
M  V30 26 1 25 6
M  V30 27 1 26 7
M  V30 28 1 27 7
M  V30 29 1 28 7
M  V30 30 1 29 8
M  V30 31 1 30 8
M  V30 32 1 31 9
M  V30 33 1 32 9
M  V30 34 1 33 11
M  V30 35 1 34 11
M  V30 36 1 35 14
M  V30 37 1 36 14
M  V30 38 1 37 15
M  V30 39 1 38 15
M  V30 40 1 39 16
M  V30 41 1 40 16
M  V30 42 1 41 18
M  V30 43 1 42 19
M  V30 44 1 43 20
M  V30 45 1 44 20
M  V30 END BOND
M  V30 END CTAB
M  END
>  <i_epik_Tot_Q>  (1) 
0

>  <i_epik_Tot_abs_Q>  (1) 
0

>  <i_i_glide_confnum>  (1) 
94

>  <i_i_glide_lignum>  (1) 
5

>  <i_i_glide_posenum>  (1) 
167

>  <i_i_glide_rotatable_bonds>  (1) 
4

>  <i_lp_mmshare_version>  (1) 
72125

>  <i_m_source_file_index>  (1) 
4

>  <i_f3d_flags>  (1) 
0

>  <num_sample>  (1) 
100

>  <b_lp_Chiralities_Consistent>  (1) 
1

>  <r_epik_Charging_Adjusted_Penalty>  (1) 
0.086869227700427584

>  <r_epik_Ionization_Penalty>  (1) 
0.086869227700427626

>  <r_epik_Ionization_Penalty_Charging>  (1) 
0

>  <r_epik_Ionization_Penalty_Neutral>  (1) 
0.086869227700427626

>  <r_epik_State_Penalty>  (1) 
0.086869227700427584

>  <r_glide_ring_energy>  (1) 
1.1517344431711876

>  <r_i_docking_score>  (1) 
-4.6729878931647324

>  <r_i_glide_ecoul>  (1) 
-1.0960581364263469

>  <r_i_glide_eff_state_penalty>  (1) 
0.086869227700427584

>  <r_i_glide_einternal>  (1) 
0.89993164356690603

>  <r_i_glide_emodel>  (1) 
-22.454833415496385

>  <r_i_glide_emodel_strain>  (1) 
0.99638037749101471

>  <r_i_glide_energy>  (1) 
-18.802291413106467

>  <r_i_glide_erotb>  (1) 
0.47104844352190411

>  <r_i_glide_esite>  (1) 
0

>  <r_i_glide_evdw>  (1) 
-17.70623327668012

>  <r_i_glide_gscore>  (1) 
-4.7598571208651599

>  <r_i_glide_gscore_strain>  (1) 
0

>  <r_i_glide_hbond>  (1) 
0

>  <r_i_glide_ligand_efficiency>  (1) 
-0.23364939465823661

>  <r_i_glide_ligand_efficiency_ln>  (1) 
-1.1694947442032593

>  <r_i_glide_ligand_efficiency_sa>  (1) 
-0.63422203296705337

>  <r_i_glide_lipo>  (1) 
-1.9246085502352117

>  <r_i_glide_metal>  (1) 
-0

>  <r_i_glide_rewards>  (1) 
-2.2565766298538943

>  <r_lp_Energy>  (1) 
28.610363

>  <s_epik_cmdline>  (1) 
J2VwaWtfcHl0aG9uJywgJy1waHQnLCAnMS4wJywgJy1waCcsICc3LjQnLCAnLXRuJywgJzgnLCAnLW1hJywgJzUwMCcsICctaW1hZScsICc8aW5maWxlLm1hZT4nLCAnLW9tYWUnLCAnPG91dGZpbGUubWFlPic=

>  <s_epik_input>  (1) 
W0NIM11jMVtjSF1jKFtDSF09TyljKFtPSF0pW2NIXWMxT1tDSF0yW0NIMl1bQ0gyXVtDSDJdW0NIMl1bQ0gyXVtDSDJdW0NIMl1bQ0gyXTI=

>  <s_glide_docking_method>  (1) 
confgen

>  <s_i_glide_gridfile>  (1) 
gpcr_drd2_6luq_protein_autoprepared_prepared

>  <s_lp_Force_Field>  (1) 
S-OPLS

>  <s_lp_Variant>  (1) 
DiffSBDD_3_num_sample_100-1

>  <s_m_source_file>  (1) 
generated__ligand_DiffSBDD_2026-05-06_prepared.sdf

>  <GenAI_Model>  (1) 
DiffSBDD

>  <Protein>  (1) 
generic_title2

$$$$
DiffSBDD_11_num_sample_100
     RDKit          3D

  0  0  0  0  0  0  0  0  0  0999 V3000
M  V30 BEGIN CTAB
M  V30 COUNTS 56 58 0 0 1
M  V30 BEGIN ATOM
M  V30 1 C 7.984054 1.477258 -15.122983 0 CFG=1
M  V30 2 C 10.867825 7.002657 -8.535450 0 CFG=1
M  V30 3 N 6.108727 0.292569 -16.274110 0
M  V30 4 C 8.829924 5.427322 -9.905643 0 CFG=1
M  V30 5 O 5.676911 0.143595 -18.488852 0
M  V30 6 C 8.229021 0.153156 -14.368494 0
M  V30 7 S 8.668611 5.369302 -8.101665 0
M  V30 8 O 12.532480 9.538798 -6.205585 0
M  V30 9 O 10.216894 7.567344 -9.671765 0
M  V30 10 C 7.468110 5.259176 -10.528967 0
M  V30 11 C 8.167199 3.928838 -14.169189 0
M  V30 12 C 9.834839 6.920345 -6.229891 0
M  V30 13 C 11.992883 7.859827 -7.903453 0
M  V30 14 C 7.383971 4.580425 -11.861968 0
M  V30 15 C 6.092082 3.771075 -12.027922 0
M  V30 16 C 5.466502 -0.221073 -17.332096 0
M  V30 17 C 9.855150 6.514103 -7.514667 0
M  V30 18 C 7.140424 1.316369 -16.405821 0
M  V30 19 C 8.342842 4.704211 -12.865906 0
M  V30 20 C 4.440162 -1.300834 -17.042749 0
M  V30 21 Cl 11.834839 7.221713 -4.337238 0
M  V30 22 C 9.370719 6.719324 -10.501005 0 CFG=1
M  V30 23 C 7.434838 2.561303 -14.154349 0
M  V30 24 C 10.796789 7.929439 -5.630093 0 CFG=1
M  V30 25 C 11.506835 8.725886 -6.739842 0 CFG=1
M  V30 26 O 8.635467 4.331164 -15.234539 0
M  V30 27 C 10.024946 6.419477 -11.830592 0
M  V30 28 C 9.587926 5.567203 -12.817075 0
M  V30 29 H 8.962357 1.769355 -15.492597 0
M  V30 30 H 11.399708 6.169297 -8.943481 0
M  V30 31 H 5.892092 -0.050192 -15.348471 0
M  V30 32 H 9.478033 4.583159 -10.147496 0
M  V30 33 H 7.316887 -0.224160 -13.905143 0
M  V30 34 H 8.958510 0.285597 -13.568209 0
M  V30 35 H 8.607898 -0.624949 -15.032802 0
M  V30 36 H 13.048816 9.880143 -6.918808 0
M  V30 37 H 6.898366 4.631822 -9.843477 0
M  V30 38 H 6.880741 6.169286 -10.619448 0
M  V30 39 H 9.083416 6.523777 -5.565137 0
M  V30 40 H 12.746086 7.193384 -7.491670 0
M  V30 41 H 12.487758 8.456370 -8.670845 0
M  V30 42 H 5.349100 4.124723 -11.312129 0
M  V30 43 H 6.203282 2.709383 -11.822721 0
M  V30 44 H 5.604149 3.954945 -12.983359 0
M  V30 45 H 6.691528 2.265768 -16.701784 0
M  V30 46 H 7.807761 1.026552 -17.220278 0
M  V30 47 H 3.834829 -1.021787 -16.181320 0
M  V30 48 H 4.934141 -2.247824 -16.822431 0
M  V30 49 H 3.786492 -1.439885 -17.903397 0
M  V30 50 H 8.590869 7.424835 -10.763315 0
M  V30 51 H 6.371099 2.680499 -14.349245 0
M  V30 52 H 7.571031 2.147286 -13.159398 0
M  V30 53 H 10.226981 8.676918 -5.091807 0
M  V30 54 H 10.750449 9.369270 -7.174038 0
M  V30 55 H 10.948914 6.949827 -12.004426 0
M  V30 56 H 10.226290 5.511661 -13.688119 0
M  V30 END ATOM
M  V30 BEGIN BOND
M  V30 1 1 6 1
M  V30 2 1 7 4
M  V30 3 1 9 2
M  V30 4 1 10 4
M  V30 5 1 13 2
M  V30 6 1 14 10
M  V30 7 1 15 14
M  V30 8 1 16 3
M  V30 9 2 16 5
M  V30 10 1 17 2
M  V30 11 1 17 7
M  V30 12 2 17 12
M  V30 13 1 18 1
M  V30 14 1 18 3
M  V30 15 1 19 11
M  V30 16 2 19 14
M  V30 17 1 20 16
M  V30 18 1 22 4
M  V30 19 1 22 9
M  V30 20 1 23 1
M  V30 21 1 23 11
M  V30 22 1 24 12
M  V30 23 1 24 21
M  V30 24 1 25 8
M  V30 25 1 25 13
M  V30 26 1 25 24
M  V30 27 2 26 11
M  V30 28 1 27 22
M  V30 29 1 28 19
M  V30 30 2 28 27
M  V30 31 1 1 29 CFG=3
M  V30 32 1 2 30 CFG=3
M  V30 33 1 31 3
M  V30 34 1 4 32 CFG=3
M  V30 35 1 33 6
M  V30 36 1 34 6
M  V30 37 1 35 6
M  V30 38 1 36 8
M  V30 39 1 37 10
M  V30 40 1 38 10
M  V30 41 1 39 12
M  V30 42 1 40 13
M  V30 43 1 41 13
M  V30 44 1 42 15
M  V30 45 1 43 15
M  V30 46 1 44 15
M  V30 47 1 45 18
M  V30 48 1 46 18
M  V30 49 1 47 20
M  V30 50 1 48 20
M  V30 51 1 49 20
M  V30 52 1 22 50 CFG=3
M  V30 53 1 51 23
M  V30 54 1 52 23
M  V30 55 1 24 53 CFG=1
M  V30 56 1 25 54 CFG=3
M  V30 57 1 55 27
M  V30 58 1 56 28
M  V30 END BOND
M  V30 END CTAB
M  END
>  <i_epik_Tot_Q>  (1) 
0

>  <i_epik_Tot_abs_Q>  (1) 
0

>  <i_i_glide_confnum>  (1) 
262

>  <i_i_glide_lignum>  (1) 
18

>  <i_i_glide_posenum>  (1) 
196

>  <i_i_glide_rotatable_bonds>  (1) 
7

>  <i_lp_mmshare_version>  (1) 
72125

>  <i_m_source_file_index>  (1) 
12

>  <i_f3d_flags>  (1) 
0

>  <num_sample>  (1) 
100

>  <b_lp_Chiralities_Consistent>  (1) 
1

>  <r_epik_Charging_Adjusted_Penalty>  (1) 
0

>  <r_epik_Ionization_Penalty>  (1) 
0.000136015572717869

>  <r_epik_Ionization_Penalty_Charging>  (1) 
0

>  <r_epik_Ionization_Penalty_Neutral>  (1) 
0.000136015572717869

>  <r_epik_State_Penalty>  (1) 
-0

>  <r_glide_ring_energy>  (1) 
0

>  <r_i_docking_score>  (1) 
-4.667732792905408

>  <r_i_glide_ecoul>  (1) 
-1.1064507211303685

>  <r_i_glide_eff_state_penalty>  (1) 
-0

>  <r_i_glide_einternal>  (1) 
24.706886072344286

>  <r_i_glide_emodel>  (1) 
-32.46074738575512

>  <r_i_glide_emodel_strain>  (1) 
1.1430665702128238

>  <r_i_glide_energy>  (1) 
-36.046803484313998

>  <r_i_glide_erotb>  (1) 
0.5467392007768872

>  <r_i_glide_esite>  (1) 
0

>  <r_i_glide_evdw>  (1) 
-34.940352763183625

>  <r_i_glide_gscore>  (1) 
-4.667732792905408

>  <r_i_glide_gscore_strain>  (1) 
0

>  <r_i_glide_hbond>  (1) 
0

>  <r_i_glide_ligand_efficiency>  (1) 
-0.16670474260376458

>  <r_i_glide_ligand_efficiency_ln>  (1) 
-1.0774497791925881

>  <r_i_glide_ligand_efficiency_sa>  (1) 
-0.50621378294996244

>  <r_i_glide_lipo>  (1) 
-1.8737028600800965

>  <r_i_glide_metal>  (1) 
-0

>  <r_i_glide_rewards>  (1) 
-1.4277838872734625

>  <r_lp_Energy>  (1) 
23.239920999999999

>  <r_lp_tautomer_probability>  (1) 
1

>  <s_epik_cmdline>  (1) 
J2VwaWtfcHl0aG9uJywgJy1waHQnLCAnMS4wJywgJy1waCcsICc3LjQnLCAnLXRuJywgJzgnLCAnLW1hJywgJzUwMCcsICctaW1hZScsICc8aW5maWxlLm1hZT4nLCAnLW9tYWUnLCAnPG91dGZpbGUubWFlPic=

>  <s_epik_input>  (1) 
Tz1DKFtDSDNdKVtOSF1bQ0gyXVtDQEhdKFtDSDNdKVtDSDJdQyg9TylDKD1DKFtDSDJdMSlbQ0gzXSlbQ0hdPVtDSF1bQ0BIXShPMilbQ0BIXTFTQyhbQ0BASF0yMyk9W0NIXVtDQEBIXShDbClbQ0BASF0oW09IXSlbQ0gyXTM=

>  <s_glide_docking_method>  (1) 
confgen

>  <s_i_glide_gridfile>  (1) 
gpcr_drd2_6luq_protein_autoprepared_prepared

>  <s_lp_Force_Field>  (1) 
S-OPLS

>  <s_lp_Variant>  (1) 
DiffSBDD_11_num_sample_100-1

>  <s_m_source_file>  (1) 
generated__ligand_DiffSBDD_2026-05-06_prepared.sdf

>  <GenAI_Model>  (1) 
DiffSBDD

>  <Protein>  (1) 
generic_title2

$$$$
DiffSBDD_43_num_sample_100
     RDKit          3D

  0  0  0  0  0  0  0  0  0  0999 V3000
M  V30 BEGIN CTAB
M  V30 COUNTS 37 39 0 0 1
M  V30 BEGIN ATOM
M  V30 1 C 6.541895 7.769056 -15.016007 0
M  V30 2 N 9.547085 6.471044 -8.849655 0
M  V30 3 C 9.221821 7.481681 -11.013667 0
M  V30 4 C 8.447739 4.025623 -12.202902 0
M  V30 5 N 9.434110 5.407493 -9.791241 0
M  V30 6 C 5.488936 6.967995 -17.096121 0
M  V30 7 C 10.397670 6.256061 -7.682137 0
M  V30 8 C 7.409987 5.607442 -14.309499 0
M  V30 9 C 5.543160 8.164478 -16.119416 0
M  V30 10 F 11.075322 7.994286 -9.681886 0
M  V30 11 C 8.027383 6.220981 -13.189175 0
M  V30 12 C 9.767371 7.729603 -9.601816 0 CFG=2
M  V30 13 N 6.886324 6.410930 -15.363856 0
M  V30 14 N 9.148240 6.036323 -10.995931 0
M  V30 15 C 8.544278 5.431336 -12.128974 0
M  V30 16 C 7.327790 4.193384 -14.366746 0
M  V30 17 C 5.974174 5.769270 -16.276573 0
M  V30 18 C 7.845195 3.411520 -13.316734 0
M  V30 19 H 6.048116 7.768913 -14.042773 0
M  V30 20 H 7.412453 8.425089 -14.999458 0
M  V30 21 H 9.882765 7.866260 -11.791722 0
M  V30 22 H 8.234530 7.930523 -11.108456 0
M  V30 23 H 8.840926 3.414793 -11.404014 0
M  V30 24 H 10.326776 4.923166 -9.860393 0
M  V30 25 H 4.498222 6.812911 -17.524413 0
M  V30 26 H 6.182163 7.147626 -17.919407 0
M  V30 27 H 11.435227 6.142899 -7.984033 0
M  V30 28 H 10.320978 7.108022 -7.006770 0
M  V30 29 H 10.073260 5.368884 -7.146001 0
M  V30 30 H 4.560228 8.340126 -15.680723 0
M  V30 31 H 5.835157 9.082624 -16.628633 0
M  V30 32 H 8.097576 7.293215 -13.144503 0
M  V30 33 H 9.283391 8.571132 -9.103583 0
M  V30 34 H 6.868511 3.705997 -15.212162 0
M  V30 35 H 6.435823 5.003458 -16.900400 0
M  V30 36 H 5.138956 5.369337 -15.707387 0
M  V30 37 H 7.779513 2.334431 -13.365433 0
M  V30 END ATOM
M  V30 BEGIN BOND
M  V30 1 1 5 2
M  V30 2 1 7 2
M  V30 3 1 9 1
M  V30 4 1 9 6
M  V30 5 2 11 8
M  V30 6 1 12 2
M  V30 7 1 12 3
M  V30 8 1 12 10
M  V30 9 1 13 1
M  V30 10 1 13 8
M  V30 11 1 14 3
M  V30 12 1 14 5
M  V30 13 2 15 4
M  V30 14 1 15 11
M  V30 15 1 15 14
M  V30 16 1 16 8
M  V30 17 1 17 6
M  V30 18 1 17 13
M  V30 19 1 18 4
M  V30 20 2 18 16
M  V30 21 1 19 1
M  V30 22 1 20 1
M  V30 23 1 21 3
M  V30 24 1 22 3
M  V30 25 1 23 4
M  V30 26 1 24 5
M  V30 27 1 25 6
M  V30 28 1 26 6
M  V30 29 1 27 7
M  V30 30 1 28 7
M  V30 31 1 29 7
M  V30 32 1 30 9
M  V30 33 1 31 9
M  V30 34 1 32 11
M  V30 35 1 12 33 CFG=1
M  V30 36 1 34 16
M  V30 37 1 35 17
M  V30 38 1 36 17
M  V30 39 1 37 18
M  V30 END BOND
M  V30 END CTAB
M  END
>  <i_epik_Tot_Q>  (1) 
0

>  <i_epik_Tot_abs_Q>  (1) 
0

>  <i_i_glide_confnum>  (1) 
24

>  <i_i_glide_lignum>  (1) 
75

>  <i_i_glide_posenum>  (1) 
198

>  <i_i_glide_rotatable_bonds>  (1) 
2

>  <i_lp_mmshare_version>  (1) 
72125

>  <i_m_source_file_index>  (1) 
44

>  <i_f3d_flags>  (1) 
0

>  <num_sample>  (1) 
100

>  <b_lp_Chiralities_Consistent>  (1) 
1

>  <r_epik_Charging_Adjusted_Penalty>  (1) 
0.0083505281845598599

>  <r_epik_Ionization_Penalty>  (1) 
0.0096858193437649089

>  <r_epik_Ionization_Penalty_Charging>  (1) 
0

>  <r_epik_Ionization_Penalty_Neutral>  (1) 
0.0096858193437649089

>  <r_epik_State_Penalty>  (1) 
0.0083505281845598599

>  <r_glide_ring_energy>  (1) 
1.652798879971576

>  <r_i_docking_score>  (1) 
-4.658081401748694

>  <r_i_glide_ecoul>  (1) 
-0.28573404804881908

>  <r_i_glide_eff_state_penalty>  (1) 
0.0083505281845598599

>  <r_i_glide_einternal>  (1) 
2.4761641537898385

>  <r_i_glide_emodel>  (1) 
-30.153842502382112

>  <r_i_glide_emodel_strain>  (1) 
0.035727156857632281

>  <r_i_glide_energy>  (1) 
-24.428520998625036

>  <r_i_glide_erotb>  (1) 
0.55876719090136395

>  <r_i_glide_esite>  (1) 
-0.15744849500826016

>  <r_i_glide_evdw>  (1) 
-24.142786950576216

>  <r_i_glide_gscore>  (1) 
-4.6664319299332542

>  <r_i_glide_gscore_strain>  (1) 
0

>  <r_i_glide_hbond>  (1) 
0

>  <r_i_glide_ligand_efficiency>  (1) 
-0.25878230009714964

>  <r_i_glide_ligand_efficiency_ln>  (1) 
-1.1973358053235743

>  <r_i_glide_ligand_efficiency_sa>  (1) 
-0.67820148595318919

>  <r_i_glide_lipo>  (1) 
-1.5939823849822434

>  <r_i_glide_metal>  (1) 
-0

>  <r_i_glide_rewards>  (1) 
-2.2237687861079798

>  <r_lp_Energy>  (1) 
4.2772959999999998

>  <s_epik_cmdline>  (1) 
J2VwaWtfcHl0aG9uJywgJy1waHQnLCAnMS4wJywgJy1waCcsICc3LjQnLCAnLXRuJywgJzgnLCAnLW1hJywgJzUwMCcsICctaW1hZScsICc8aW5maWxlLm1hZT4nLCAnLW9tYWUnLCAnPG91dGZpbGUubWFlPic=

>  <s_epik_input>  (1) 
W0NIMl0xW0NIMl1bQ0gyXVtDSDJdTjFjMltjSF1jKFtjSF1bY0hdW2NIXTIpTihbQ0gyXVtDQEBIXTNGKVtOSF1OM1tDSDNd

>  <s_glide_docking_method>  (1) 
confgen

>  <s_i_glide_gridfile>  (1) 
gpcr_drd2_6luq_protein_autoprepared_prepared

>  <s_lp_Force_Field>  (1) 
S-OPLS

>  <s_lp_Variant>  (1) 
DiffSBDD_43_num_sample_100-1

>  <s_m_source_file>  (1) 
generated__ligand_DiffSBDD_2026-05-06_prepared.sdf

>  <GenAI_Model>  (1) 
DiffSBDD

>  <Protein>  (1) 
generic_title2

$$$$
DiffSBDD_45_num_sample_100
     RDKit          3D

  0  0  0  0  0  0  0  0  0  0999 V3000
M  V30 BEGIN CTAB
M  V30 COUNTS 63 65 0 0 1
M  V30 BEGIN ATOM
M  V30 1 C 4.591049 7.498143 -18.267042 0
M  V30 2 C 9.968235 7.354525 -10.107579 0
M  V30 3 C 4.749306 6.353407 -19.284423 0
M  V30 4 C 9.688760 8.192558 -6.981377 0 CFG=1
M  V30 5 C 10.189243 6.896126 -7.652756 0 CFG=1
M  V30 6 C 11.835138 9.538935 -7.093988 0
M  V30 7 C 7.885712 5.313818 -14.931965 0
M  V30 8 C 6.248627 6.441710 -16.638446 0 CFG=2
M  V30 9 O 8.741995 5.369306 -15.817466 0
M  V30 10 N 10.837246 6.984280 -8.978782 0
M  V30 11 Cl 11.386951 6.169306 -6.544446 0
M  V30 12 C 6.803010 6.072332 -12.078928 0 CFG=1
M  V30 13 C 5.988680 3.676493 -12.774292 0
M  V30 14 C 5.849012 5.382804 -18.913213 0
M  V30 15 C 8.061439 6.901316 -11.713215 0
M  V30 16 N 10.734564 8.969256 -6.299805 0
M  V30 17 C 5.847144 6.822443 -13.019868 0
M  V30 18 C 8.881448 6.356717 -10.510144 0
M  V30 19 C 6.513917 5.414946 -17.746559 0
M  V30 20 C 12.047976 7.792275 -8.973795 0
M  V30 21 C 7.152386 4.677555 -12.619949 0 CFG=1
M  V30 22 C 6.490218 5.939235 -15.173859 0 CFG=2
M  V30 23 F 9.034767 8.969302 -7.820423 0
M  V30 24 O 6.360318 7.077687 -14.321551 0
M  V30 25 C 4.836035 7.047367 -16.817188 0
M  V30 26 C 11.820880 9.255594 -8.615689 0
M  V30 27 N 8.127051 4.724275 -13.725171 0
M  V30 28 C 9.434899 4.169274 -13.428689 0
M  V30 29 H 3.599857 7.942408 -18.363748 0
M  V30 30 H 5.302798 8.286946 -18.512388 0
M  V30 31 H 10.588729 7.499027 -10.990885 0
M  V30 32 H 9.498512 8.320021 -9.938186 0
M  V30 33 H 4.947177 6.765239 -20.274324 0
M  V30 34 H 3.834852 5.769301 -19.364272 0
M  V30 35 H 8.941981 7.907934 -6.239445 0
M  V30 36 H 9.356050 6.195203 -7.711885 0
M  V30 37 H 12.786241 9.196240 -6.686671 0
M  V30 38 H 11.834834 10.618510 -6.942903 0
M  V30 39 H 6.959573 7.238866 -16.834241 0
M  V30 40 H 6.250502 5.926512 -11.148061 0
M  V30 41 H 5.528733 3.520109 -11.798070 0
M  V30 42 H 5.187076 3.990195 -13.435459 0
M  V30 43 H 6.349706 2.707587 -13.120068 0
M  V30 44 H 6.092797 4.627153 -19.645713 0
M  V30 45 H 8.715970 7.020972 -12.574853 0
M  V30 46 H 7.739629 7.917891 -11.491694 0
M  V30 47 H 11.138476 8.375887 -5.581384 0
M  V30 48 H 5.566609 7.769304 -12.562772 0
M  V30 49 H 4.928577 6.257217 -13.120615 0
M  V30 50 H 8.234855 6.169299 -9.656440 0
M  V30 51 H 9.339273 5.396913 -10.731755 0
M  V30 52 H 7.284301 4.684894 -17.563610 0
M  V30 53 H 12.800357 7.375874 -8.308716 0
M  V30 54 H 12.505882 7.740223 -9.962040 0
M  V30 55 H 7.697821 4.224559 -11.791849 0
M  V30 56 H 5.714618 5.203858 -14.998211 0
M  V30 57 H 4.077375 6.315730 -16.538715 0
M  V30 58 H 4.705799 7.899360 -16.149058 0
M  V30 59 H 12.634824 9.769286 -9.101509 0
M  V30 60 H 10.951546 9.676369 -9.109543 0
M  V30 61 H 10.087285 4.175452 -14.294175 0
M  V30 62 H 9.948698 4.778345 -12.689623 0
M  V30 63 H 9.353044 3.151083 -13.045411 0
M  V30 END ATOM
M  V30 BEGIN BOND
M  V30 1 1 3 1
M  V30 2 1 5 4
M  V30 3 2 9 7
M  V30 4 1 10 2
M  V30 5 1 10 5
M  V30 6 1 11 5
M  V30 7 1 14 3
M  V30 8 1 15 12
M  V30 9 1 16 4
M  V30 10 1 16 6
M  V30 11 1 17 12
M  V30 12 1 18 2
M  V30 13 1 18 15
M  V30 14 1 19 8
M  V30 15 2 19 14
M  V30 16 1 20 10
M  V30 17 1 21 12
M  V30 18 1 21 13
M  V30 19 1 22 7
M  V30 20 1 22 8
M  V30 21 1 23 4
M  V30 22 1 24 17
M  V30 23 1 24 22
M  V30 24 1 25 1
M  V30 25 1 25 8
M  V30 26 1 26 6
M  V30 27 1 26 20
M  V30 28 1 27 7
M  V30 29 1 27 21
M  V30 30 1 28 27
M  V30 31 1 29 1
M  V30 32 1 30 1
M  V30 33 1 31 2
M  V30 34 1 32 2
M  V30 35 1 33 3
M  V30 36 1 34 3
M  V30 37 1 4 35 CFG=1
M  V30 38 1 5 36 CFG=3
M  V30 39 1 37 6
M  V30 40 1 38 6
M  V30 41 1 8 39 CFG=3
M  V30 42 1 12 40 CFG=1
M  V30 43 1 41 13
M  V30 44 1 42 13
M  V30 45 1 43 13
M  V30 46 1 44 14
M  V30 47 1 45 15
M  V30 48 1 46 15
M  V30 49 1 47 16
M  V30 50 1 48 17
M  V30 51 1 49 17
M  V30 52 1 50 18
M  V30 53 1 51 18
M  V30 54 1 52 19
M  V30 55 1 53 20
M  V30 56 1 54 20
M  V30 57 1 21 55 CFG=1
M  V30 58 1 22 56 CFG=1
M  V30 59 1 57 25
M  V30 60 1 58 25
M  V30 61 1 59 26
M  V30 62 1 60 26
M  V30 63 1 61 28
M  V30 64 1 62 28
M  V30 65 1 63 28
M  V30 END BOND
M  V30 END CTAB
M  END
>  <i_epik_Tot_Q>  (1) 
0

>  <i_epik_Tot_abs_Q>  (1) 
0

>  <i_i_glide_confnum>  (1) 
74

>  <i_i_glide_lignum>  (1) 
84

>  <i_i_glide_posenum>  (1) 
279

>  <i_i_glide_rotatable_bonds>  (1) 
5

>  <i_lp_mmshare_version>  (1) 
72125

>  <i_m_source_file_index>  (1) 
46

>  <i_f3d_flags>  (1) 
0

>  <num_sample>  (1) 
100

>  <b_lp_Chiralities_Consistent>  (1) 
1

>  <r_epik_Charging_Adjusted_Penalty>  (1) 
0.015133208647659156

>  <r_epik_Ionization_Penalty>  (1) 
0.015206278080010002

>  <r_epik_Ionization_Penalty_Charging>  (1) 
0

>  <r_epik_Ionization_Penalty_Neutral>  (1) 
0.015206278080010002

>  <r_epik_State_Penalty>  (1) 
0.015133208647659156

>  <r_glide_ring_energy>  (1) 
0

>  <r_i_docking_score>  (1) 
-4.6555533033123462

>  <r_i_glide_ecoul>  (1) 
-1.097275531601865

>  <r_i_glide_eff_state_penalty>  (1) 
0.015133208647659156

>  <r_i_glide_einternal>  (1) 
5.3885262168113748

>  <r_i_glide_emodel>  (1) 
-28.672838957441755

>  <r_i_glide_emodel_strain>  (1) 
0.86153521164943925

>  <r_i_glide_energy>  (1) 
-26.210793110631197

>  <r_i_glide_erotb>  (1) 
0.45657733151366331

>  <r_i_glide_esite>  (1) 
-0.066034297759598001

>  <r_i_glide_evdw>  (1) 
-25.113517579029331

>  <r_i_glide_gscore>  (1) 
-4.6706865119600049

>  <r_i_glide_gscore_strain>  (1) 
0

>  <r_i_glide_hbond>  (1) 
0

>  <r_i_glide_ligand_efficiency>  (1) 
-0.1662697608325838

>  <r_i_glide_ligand_efficiency_ln>  (1) 
-1.0746383953891561

>  <r_i_glide_ligand_efficiency_sa>  (1) 
-0.50489292210062797

>  <r_i_glide_lipo>  (1) 
-2.110056063389985

>  <r_i_glide_metal>  (1) 
-0

>  <r_i_glide_rewards>  (1) 
-1.5309062736323393

>  <r_lp_Energy>  (1) 
27.293519

>  <s_epik_cmdline>  (1) 
J2VwaWtfcHl0aG9uJywgJy1waHQnLCAnMS4wJywgJy1waCcsICc3LjQnLCAnLXRuJywgJzgnLCAnLW1hJywgJzUwMCcsICctaW1hZScsICc8aW5maWxlLm1hZT4nLCAnLW9tYWUnLCAnPG91dGZpbGUubWFlPic=

>  <s_epik_input>  (1) 
W0NIMl0xW0NIMl1bQ0gyXVtDSF09W0NIXVtDQEhdMVtDQEBIXShDMj1PKU9bQ0gyXVtDQEBIXShbQ0BASF0oW0NIM10pTjJbQ0gzXSlbQ0gyXVtDSDJdW0NIMl1OKFtDQEBIXShDbClbQ0BASF0zRilbQ0gyXVtDSDJdW0NIMl1bTkhdMw==

>  <s_glide_docking_method>  (1) 
confgen

>  <s_i_glide_gridfile>  (1) 
gpcr_drd2_6luq_protein_autoprepared_prepared

>  <s_lp_Force_Field>  (1) 
S-OPLS

>  <s_lp_Variant>  (1) 
DiffSBDD_45_num_sample_100-3

>  <s_m_source_file>  (1) 
generated__ligand_DiffSBDD_2026-05-06_prepared.sdf

>  <GenAI_Model>  (1) 
DiffSBDD

>  <Protein>  (1) 
generic_title2

$$$$
DiffSBDD_73_num_sample_100
     RDKit          3D

  0  0  0  0  0  0  0  0  0  0999 V3000
M  V30 BEGIN CTAB
M  V30 COUNTS 42 44 0 0 1
M  V30 BEGIN ATOM
M  V30 1 C 8.464388 5.118737 -12.530025 0 CFG=1
M  V30 2 C 6.944743 0.894353 -15.222944 0
M  V30 3 O 9.035001 5.437800 -13.665585 0 CHG=-1
M  V30 4 C 7.320522 -0.183766 -17.254667 0
M  V30 5 C 7.471698 7.403519 -12.294884 0
M  V30 6 C 6.064608 5.598483 -13.343070 0
M  V30 7 N 8.414393 6.392831 -11.740329 0 CFG=2 CHG=1
M  V30 8 C 7.013121 3.260844 -13.645848 0
M  V30 9 C 7.792861 0.986623 -17.873728 0
M  V30 10 C 7.406047 2.127071 -15.770336 0
M  V30 11 N 6.905136 -0.230678 -15.971817 0
M  V30 12 C 6.054984 6.830456 -12.432655 0
M  V30 13 C 9.834839 7.711790 -10.131746 0
M  V30 14 C 6.525495 0.879497 -13.873506 0
M  V30 15 C 9.762210 6.967569 -11.470954 0
M  V30 16 C 8.231461 0.969639 -19.284073 0
M  V30 17 C 7.833409 2.167450 -17.110916 0
M  V30 18 C 6.560694 2.050612 -13.091667 0
M  V30 19 C 7.434845 3.295597 -14.988699 0
M  V30 20 C 7.037623 4.537240 -12.792653 0 CFG=1
M  V30 21 N 8.667307 1.980422 -19.903628 0
M  V30 22 H 8.941912 4.393874 -11.867773 0
M  V30 23 H 7.272711 -1.112590 -17.804859 0
M  V30 24 H 7.830289 7.753530 -13.264593 0
M  V30 25 H 7.441176 8.278827 -11.646305 0
M  V30 26 H 6.356255 5.892987 -14.352017 0
M  V30 27 H 5.058797 5.184012 -13.417656 0
M  V30 28 H 5.385086 7.587957 -12.839451 0
M  V30 29 H 5.663029 6.569528 -11.448253 0
M  V30 30 H 10.844037 8.081035 -9.949022 0
M  V30 31 H 9.162479 8.569404 -10.109549 0
M  V30 32 H 9.564186 7.057917 -9.301943 0
M  V30 33 H 6.171487 -0.044452 -13.437109 0
M  V30 34 H 10.502793 6.169421 -11.460720 0
M  V30 35 H 10.054657 7.625167 -12.291032 0
M  V30 36 H 8.163462 0.007446 -19.799213 0
M  V30 37 H 8.187677 3.091641 -17.545465 0
M  V30 38 H 6.234839 2.017085 -12.063636 0
M  V30 39 H 7.782519 4.222488 -15.421042 0
M  V30 40 H 6.645335 4.256265 -11.813713 0
M  V30 41 H 8.918777 1.781033 -20.861446 0
M  V30 42 H 8.031137 6.145483 -10.838305 0
M  V30 END ATOM
M  V30 BEGIN BOND
M  V30 1 1 3 1
M  V30 2 1 7 1
M  V30 3 1 7 5
M  V30 4 1 9 4
M  V30 5 1 10 2
M  V30 6 1 11 2
M  V30 7 2 11 4
M  V30 8 1 12 5
M  V30 9 1 12 6
M  V30 10 2 14 2
M  V30 11 1 15 7
M  V30 12 1 15 13
M  V30 13 1 16 9
M  V30 14 2 17 9
M  V30 15 1 17 10
M  V30 16 2 18 8
M  V30 17 1 18 14
M  V30 18 1 19 8
M  V30 19 2 19 10
M  V30 20 1 20 1
M  V30 21 1 20 6
M  V30 22 1 20 8
M  V30 23 2 21 16
M  V30 24 1 1 22 CFG=1
M  V30 25 1 23 4
M  V30 26 1 24 5
M  V30 27 1 25 5
M  V30 28 1 26 6
M  V30 29 1 27 6
M  V30 30 1 28 12
M  V30 31 1 29 12
M  V30 32 1 30 13
M  V30 33 1 31 13
M  V30 34 1 32 13
M  V30 35 1 33 14
M  V30 36 1 34 15
M  V30 37 1 35 15
M  V30 38 1 36 16
M  V30 39 1 37 17
M  V30 40 1 38 18
M  V30 41 1 39 19
M  V30 42 1 20 40 CFG=1
M  V30 43 1 41 21
M  V30 44 1 7 42 CFG=1
M  V30 END BOND
M  V30 END CTAB
M  END
>  <i_epik_Tot_Q>  (1) 
0

>  <i_epik_Tot_abs_Q>  (1) 
2

>  <i_i_glide_confnum>  (1) 
4

>  <i_i_glide_lignum>  (1) 
147

>  <i_i_glide_posenum>  (1) 
150

>  <i_i_glide_rotatable_bonds>  (1) 
3

>  <i_lp_mmshare_version>  (1) 
72125

>  <i_m_source_file_index>  (1) 
74

>  <i_f3d_flags>  (1) 
0

>  <num_sample>  (1) 
100

>  <b_lp_Chiralities_Consistent>  (1) 
1

>  <r_epik_Charging_Adjusted_Penalty>  (1) 
0.16727262916870361

>  <r_epik_Ionization_Penalty>  (1) 
0.055388618387316971

>  <r_epik_Ionization_Penalty_Charging>  (1) 
0.05537307808352282

>  <r_epik_Ionization_Penalty_Neutral>  (1) 
1.5540303794148587e-05

>  <r_epik_State_Penalty>  (1) 
0.11189955108518078

>  <r_glide_ring_energy>  (1) 
0

>  <r_i_docking_score>  (1) 
-4.6519777759707583

>  <r_i_glide_ecoul>  (1) 
-0.72607967842608989

>  <r_i_glide_eff_state_penalty>  (1) 
0.11189955108518078

>  <r_i_glide_einternal>  (1) 
0.67489277516159873

>  <r_i_glide_emodel>  (1) 
-36.656965331369513

>  <r_i_glide_emodel_strain>  (1) 
0.02694044522637995

>  <r_i_glide_energy>  (1) 
-27.268592641557362

>  <r_i_glide_erotb>  (1) 
0.22551580141899327

>  <r_i_glide_esite>  (1) 
-0.06315134172902892

>  <r_i_glide_evdw>  (1) 
-26.542512963131273

>  <r_i_glide_gscore>  (1) 
-4.7638773270559387

>  <r_i_glide_gscore_strain>  (1) 
0

>  <r_i_glide_hbond>  (1) 
0

>  <r_i_glide_ligand_efficiency>  (1) 
-0.22152275123670279

>  <r_i_glide_ligand_efficiency_ln>  (1) 
-1.1501921049025654

>  <r_i_glide_ligand_efficiency_sa>  (1) 
-0.61116447400540019

>  <r_i_glide_lipo>  (1) 
-1.2082887696619118

>  <r_i_glide_metal>  (1) 
-0

>  <r_i_glide_rewards>  (1) 
-2.2819154171635141

>  <r_lp_Energy>  (1) 
44.226918999999995

>  <s_epik_Chemistry_Notes>  (1) 
This compound has an imine and may undergo hydrolysis. This compound contains an acetal/aminal-like group ( X-CH(R)-Y where X, Y are N, S, or O) that may be acid/base labile, releasing an aldehyde.

>  <s_epik_cmdline>  (1) 
J2VwaWtfcHl0aG9uJywgJy1waHQnLCAnMS4wJywgJy1waCcsICc3LjQnLCAnLXRuJywgJzgnLCAnLW1hJywgJzUwMCcsICctaW1hZScsICc8aW5maWxlLm1hZT4nLCAnLW9tYWUnLCAnPG91dGZpbGUubWFlPic=

>  <s_epik_input>  (1) 
W09IXVtDQEhdMU4oW0NIMl1bQ0gzXSlbQ0gyXVtDSDJdW0NIMl1bQ0BIXTFjKFtjSF1bY0hdMilbY0hdYyhjMjMpW2NIXWMoW2NIXW4zKS9bQ0hdPU4vW0hd

>  <s_glide_docking_method>  (1) 
confgen

>  <s_i_glide_gridfile>  (1) 
gpcr_drd2_6luq_protein_autoprepared_prepared

>  <s_lp_Force_Field>  (1) 
S-OPLS

>  <s_lp_Variant>  (1) 
DiffSBDD_73_num_sample_100-2

>  <s_m_source_file>  (1) 
generated__ligand_DiffSBDD_2026-05-06_prepared.sdf

>  <GenAI_Model>  (1) 
DiffSBDD

>  <Protein>  (1) 
generic_title2

$$$$
DiffSBDD_25_num_sample_100
     RDKit          3D

  0  0  0  0  0  0  0  0  0  0999 V3000
M  V30 BEGIN CTAB
M  V30 COUNTS 66 69 0 0 1
M  V30 BEGIN ATOM
M  V30 1 C 10.210772 7.014266 -5.657204 0
M  V30 2 C 4.800206 7.301419 -17.262398 0
M  V30 3 C 6.773967 6.034620 -16.118714 0
M  V30 4 C 8.244635 5.420322 -11.750581 0 CFG=2
M  V30 5 C 5.601797 6.048433 -21.159192 0
M  V30 6 O 6.781537 7.070762 -19.374756 0
M  V30 7 C 6.937331 5.674849 -19.232955 0 CFG=1
M  V30 8 C 5.828684 7.355125 -20.388851 0 CFG=2
M  V30 9 F 3.914610 7.455479 -16.291636 0
M  V30 10 C 4.584611 8.029975 -19.786028 0
M  V30 11 C 10.285097 7.725387 -9.685564 0
M  V30 12 C 5.874803 5.103192 -18.276030 0
M  V30 13 F 5.614641 8.346352 -17.175364 0
M  V30 14 C 5.898684 6.506437 -12.454961 0 CFG=1
M  V30 15 N 10.217242 7.876815 -8.312174 0
M  V30 16 C 5.522734 5.936977 -17.008945 0 CFG=2
M  V30 17 O 7.771927 7.828838 -11.891649 0
M  V30 18 C 10.594909 6.416613 -12.446294 0
M  V30 19 C 5.462878 6.395919 -13.929763 0
M  V30 20 F 5.434882 5.484595 -11.735187 0
M  V30 21 C 9.722110 5.766252 -11.349546 0 CFG=1
M  V30 22 C 7.764301 6.633543 -13.972524 0
M  V30 23 C 9.719759 6.696803 -7.915343 0
M  V30 24 C 8.265848 4.060360 -12.517665 0
M  V30 25 C 6.744202 5.173616 -20.663967 0
M  V30 26 O 9.438878 5.815469 -8.914865 0
M  V30 27 O 6.994265 3.615625 -12.942085 0
M  V30 28 C 3.927348 7.406158 -18.526021 0
M  V30 29 N 6.660930 5.936431 -14.640447 0 CFG=2 CHG=1
M  V30 30 C 9.834465 6.483092 -10.038596 0
M  V30 31 O 9.494160 6.302651 -6.651291 0
M  V30 32 C 7.454569 6.578244 -12.472992 0 CFG=1
M  V30 33 H 10.050071 6.541842 -4.689019 0
M  V30 34 H 11.282618 6.999827 -5.857882 0
M  V30 35 H 9.871208 8.048327 -5.589781 0
M  V30 36 H 7.221546 6.969013 -16.370428 0
M  V30 37 H 7.509524 5.279235 -16.399931 0
M  V30 38 H 7.721283 5.222093 -10.813263 0
M  V30 39 H 4.636528 5.601241 -20.914399 0
M  V30 40 H 5.630781 6.192538 -22.240154 0
M  V30 41 H 7.937716 5.458075 -18.857509 0
M  V30 42 H 6.298168 8.068349 -21.067409 0
M  V30 43 H 3.834440 8.135541 -20.569965 0
M  V30 44 H 4.867543 9.050852 -19.534828 0
M  V30 45 H 10.672322 8.513285 -10.312490 0
M  V30 46 H 6.235005 4.119757 -17.966988 0
M  V30 47 H 4.972373 4.883038 -18.829861 0
M  V30 48 H 5.440431 7.390275 -12.005719 0
M  V30 49 H 4.789000 5.370438 -16.463664 0
M  V30 50 H 7.492789 7.812506 -10.965099 0
M  V30 51 H 11.636487 6.522876 -12.145295 0
M  V30 52 H 10.621627 5.813969 -13.352656 0
M  V30 53 H 10.244847 7.417232 -12.691099 0
M  V30 54 H 5.181517 7.384892 -14.290018 0
M  V30 55 H 4.639616 5.699806 -14.072453 0
M  V30 56 H 10.199803 4.804391 -11.169330 0
M  V30 57 H 7.773603 7.672030 -14.311538 0
M  V30 58 H 8.697132 6.168617 -14.265979 0
M  V30 59 H 8.687453 3.275047 -11.890689 0
M  V30 60 H 8.919739 4.110978 -13.388662 0
M  V30 61 H 7.644440 5.366628 -21.248399 0
M  V30 62 H 6.525364 4.106284 -20.721926 0
M  V30 63 H 6.470030 3.434250 -12.172781 0
M  V30 64 H 3.456778 6.439956 -18.691491 0
M  V30 65 H 3.085161 8.062922 -18.295226 0
M  V30 66 H 6.752938 4.958616 -14.381772 0
M  V30 END ATOM
M  V30 BEGIN BOND
M  V30 1 1 7 6
M  V30 2 1 8 5
M  V30 3 1 8 6
M  V30 4 1 9 2
M  V30 5 1 10 8
M  V30 6 1 12 7
M  V30 7 1 13 2
M  V30 8 1 15 11
M  V30 9 1 16 2
M  V30 10 1 16 3
M  V30 11 1 16 12
M  V30 12 1 19 14
M  V30 13 1 20 14
M  V30 14 1 21 4
M  V30 15 1 21 18
M  V30 16 2 23 15
M  V30 17 1 24 4
M  V30 18 1 25 5
M  V30 19 1 25 7
M  V30 20 1 26 23
M  V30 21 1 27 24
M  V30 22 1 28 2
M  V30 23 1 28 10
M  V30 24 1 29 3
M  V30 25 1 29 19
M  V30 26 1 29 22
M  V30 27 2 30 11
M  V30 28 1 30 21
M  V30 29 1 30 26
M  V30 30 1 31 1
M  V30 31 1 31 23
M  V30 32 1 32 4
M  V30 33 1 32 14
M  V30 34 1 32 17 CFG=1
M  V30 35 1 32 22
M  V30 36 1 33 1
M  V30 37 1 34 1
M  V30 38 1 35 1
M  V30 39 1 36 3
M  V30 40 1 37 3
M  V30 41 1 4 38 CFG=1
M  V30 42 1 39 5
M  V30 43 1 40 5
M  V30 44 1 7 41 CFG=1
M  V30 45 1 8 42 CFG=3
M  V30 46 1 43 10
M  V30 47 1 44 10
M  V30 48 1 45 11
M  V30 49 1 46 12
M  V30 50 1 47 12
M  V30 51 1 14 48 CFG=1
M  V30 52 1 16 49 CFG=1
M  V30 53 1 50 17
M  V30 54 1 51 18
M  V30 55 1 52 18
M  V30 56 1 53 18
M  V30 57 1 54 19
M  V30 58 1 55 19
M  V30 59 1 21 56 CFG=1
M  V30 60 1 57 22
M  V30 61 1 58 22
M  V30 62 1 59 24
M  V30 63 1 60 24
M  V30 64 1 61 25
M  V30 65 1 62 25
M  V30 66 1 63 27
M  V30 67 1 64 28
M  V30 68 1 65 28
M  V30 69 1 29 66 CFG=3
M  V30 END BOND
M  V30 END CTAB
M  END
>  <i_epik_Tot_Q>  (1) 
1

>  <i_epik_Tot_abs_Q>  (1) 
1

>  <i_i_glide_confnum>  (1) 
281

>  <i_i_glide_lignum>  (1) 
38

>  <i_i_glide_posenum>  (1) 
289

>  <i_i_glide_rotatable_bonds>  (1) 
9

>  <i_lp_mmshare_version>  (1) 
72125

>  <i_m_source_file_index>  (1) 
26

>  <i_f3d_flags>  (1) 
0

>  <num_sample>  (1) 
100

>  <b_lp_Chiralities_Consistent>  (1) 
1

>  <r_epik_Charging_Adjusted_Penalty>  (1) 
0.21543991348680042

>  <r_epik_Ionization_Penalty>  (1) 
0.10772808098718631

>  <r_epik_Ionization_Penalty_Charging>  (1) 
0.10771995674340021

>  <r_epik_Ionization_Penalty_Neutral>  (1) 
8.124243786105112e-06

>  <r_epik_State_Penalty>  (1) 
0.10771995674340022

>  <r_glide_ring_energy>  (1) 
0

>  <r_i_docking_score>  (1) 
-4.6515822717289428

>  <r_i_glide_ecoul>  (1) 
-6.4155258357444316

>  <r_i_glide_eff_state_penalty>  (1) 
0.10771995674340022

>  <r_i_glide_einternal>  (1) 
10.661335142637519

>  <r_i_glide_emodel>  (1) 
-34.148435325040481

>  <r_i_glide_emodel_strain>  (1) 
3.4233181846467602

>  <r_i_glide_energy>  (1) 
-31.711221083418557

>  <r_i_glide_erotb>  (1) 
0.56277696399540145

>  <r_i_glide_esite>  (1) 
-0.03778410871824147

>  <r_i_glide_evdw>  (1) 
-25.295695247674125

>  <r_i_glide_gscore>  (1) 
-4.7593022284723432

>  <r_i_glide_gscore_strain>  (1) 
0

>  <r_i_glide_hbond>  (1) 
-0.16

>  <r_i_glide_ligand_efficiency>  (1) 
-0.14536194599152946

>  <r_i_glide_ligand_efficiency_ln>  (1) 
-1.0416160679839357

>  <r_i_glide_ligand_efficiency_sa>  (1) 
-0.46149541196619698

>  <r_i_glide_lipo>  (1) 
-1.8262254417835684

>  <r_i_glide_metal>  (1) 
-0

>  <r_i_glide_rewards>  (1) 
-1.0709560042205628

>  <r_lp_Energy>  (1) 
39.515628999999997

>  <s_epik_cmdline>  (1) 
J2VwaWtfcHl0aG9uJywgJy1waHQnLCAnMS4wJywgJy1waCcsICc3LjQnLCAnLXRuJywgJzgnLCAnLW1hJywgJzUwMCcsICctaW1hZScsICc8aW5maWxlLm1hZT4nLCAnLW9tYWUnLCAnPG91dGZpbGUubWFlPic=

>  <s_epik_input>  (1) 
W0NIM11PYzFuW2NIXWMobzEpW0NASF0oW0NIM10pW0NASF0oW0NIMl1bT0hdKVtDQF0yKFtPSF0pW0NASF0oRilbQ0gyXU4oW0NIMl0yKVtDSDJdW0NASF0oW0NIMl0zKUMoRikoRilbQ0gyXVtDSDJdW0NASF0oW0NIMl1bQ0gyXTQpT1tDQEBIXTM0

>  <s_glide_docking_method>  (1) 
confgen

>  <s_i_glide_gridfile>  (1) 
gpcr_drd2_6luq_protein_autoprepared_prepared

>  <s_lp_Force_Field>  (1) 
S-OPLS

>  <s_lp_Variant>  (1) 
DiffSBDD_25_num_sample_100-1

>  <s_m_source_file>  (1) 
generated__ligand_DiffSBDD_2026-05-06_prepared.sdf

>  <GenAI_Model>  (1) 
DiffSBDD

>  <Protein>  (1) 
generic_title2

$$$$
DiffSBDD_49_num_sample_100
     RDKit          3D

  0  0  0  0  0  0  0  0  0  0999 V3000
M  V30 BEGIN CTAB
M  V30 COUNTS 53 56 0 0 1
M  V30 BEGIN ATOM
M  V30 1 N 8.483462 5.427584 -14.011217 0
M  V30 2 C 7.506549 5.555061 -18.693267 0
M  V30 3 C 5.789297 6.437374 -17.200834 0
M  V30 4 C 6.063724 4.417578 -10.857539 0
M  V30 5 C 9.753512 8.457006 -8.439705 0
M  V30 6 S 7.434682 3.011283 -14.537548 0
M  V30 7 C 8.164487 4.969210 -17.593787 0
M  V30 8 C 9.103105 6.136453 -9.336731 0 CFG=1
M  V30 9 C 8.349485 4.483820 -15.104986 0 CFG=1
M  V30 10 C 6.112332 3.575582 -12.155934 0
M  V30 11 C 9.048142 5.264007 -10.605237 0
M  V30 12 C 8.041995 4.962673 -12.924975 0
M  V30 13 C 10.540361 7.803552 -7.298336 0 CFG=2
M  V30 14 O 12.634817 8.969283 -7.434614 0
M  V30 15 C 8.007110 5.764850 -11.637563 0 CFG=1
M  V30 16 C 12.033115 7.717056 -7.661529 0
M  V30 17 C 7.635711 5.116416 -16.293455 0
M  V30 18 C 9.889636 5.513167 -8.175336 0
M  V30 19 C 6.319906 6.287986 -18.496944 0
M  V30 20 C 7.496962 3.572804 -12.834433 0 CFG=2
M  V30 21 C 9.647807 7.547332 -9.669150 0
M  V30 22 N 6.626121 5.769293 -11.093609 0 CHG=1
M  V30 23 C 9.923521 6.437411 -6.952151 0
M  V30 24 C 6.444112 5.852433 -16.099195 0
M  V30 25 H 8.231433 6.795670 -11.907920 0
M  V30 26 H 7.912419 5.442173 -19.688036 0
M  V30 27 H 4.879355 6.999883 -17.052194 0
M  V30 28 H 5.035146 4.515963 -10.509418 0
M  V30 29 H 6.612179 3.928568 -10.052404 0
M  V30 30 H 8.760319 8.737912 -8.087491 0
M  V30 31 H 10.251336 9.369284 -8.753251 0
M  V30 32 H 9.074503 4.407487 -17.747674 0
M  V30 33 H 8.093709 6.169293 -8.939099 0
M  V30 34 H 9.345487 4.169532 -15.418836 0
M  V30 35 H 5.366193 3.961708 -12.852330 0
M  V30 36 H 5.834842 2.544693 -11.942633 0
M  V30 37 H 10.026287 5.252530 -11.084504 0
M  V30 38 H 8.850568 4.229045 -10.326159 0
M  V30 39 H 10.442564 8.426325 -6.407536 0
M  V30 40 H 13.490138 8.969721 -7.838318 0
M  V30 41 H 12.194032 7.440817 -8.701374 0
M  V30 42 H 12.532639 6.942129 -7.091667 0
M  V30 43 H 9.440426 4.561790 -7.896300 0
M  V30 44 H 10.913656 5.325652 -8.464366 0
M  V30 45 H 5.816542 6.735637 -19.341433 0
M  V30 46 H 9.034240 8.066992 -10.398295 0
M  V30 47 H 10.617734 7.453874 -10.155224 0
M  V30 48 H 10.482996 5.969556 -6.141547 0
M  V30 49 H 8.909145 6.578941 -6.575256 0
M  V30 50 H 6.034024 5.966745 -15.106491 0
M  V30 51 H 6.634823 6.341665 -10.244949 0
M  V30 52 H 8.207965 2.950305 -12.291490 0
M  V30 53 H 6.036426 6.248257 -11.757701 0
M  V30 END ATOM
M  V30 BEGIN BOND
M  V30 1 1 7 2
M  V30 2 1 9 1
M  V30 3 1 9 6
M  V30 4 1 10 4
M  V30 5 1 11 8
M  V30 6 2 12 1
M  V30 7 1 13 5
M  V30 8 1 15 11
M  V30 9 1 15 12
M  V30 10 1 16 13
M  V30 11 1 16 14
M  V30 12 2 17 7
M  V30 13 1 17 9
M  V30 14 1 18 8
M  V30 15 2 19 2
M  V30 16 1 19 3
M  V30 17 1 20 6
M  V30 18 1 20 10
M  V30 19 1 20 12
M  V30 20 1 21 5
M  V30 21 1 21 8
M  V30 22 1 22 4
M  V30 23 1 22 15
M  V30 24 1 23 13
M  V30 25 1 23 18
M  V30 26 2 24 3
M  V30 27 1 24 17
M  V30 28 1 15 25 CFG=3
M  V30 29 1 26 2
M  V30 30 1 27 3
M  V30 31 1 28 4
M  V30 32 1 29 4
M  V30 33 1 30 5
M  V30 34 1 31 5
M  V30 35 1 32 7
M  V30 36 1 8 33 CFG=1
M  V30 37 1 9 34 CFG=3
M  V30 38 1 35 10
M  V30 39 1 36 10
M  V30 40 1 37 11
M  V30 41 1 38 11
M  V30 42 1 13 39 CFG=1
M  V30 43 1 40 14
M  V30 44 1 41 16
M  V30 45 1 42 16
M  V30 46 1 43 18
M  V30 47 1 44 18
M  V30 48 1 45 19
M  V30 49 1 46 21
M  V30 50 1 47 21
M  V30 51 1 48 23
M  V30 52 1 49 23
M  V30 53 1 50 24
M  V30 54 1 51 22
M  V30 55 1 20 52 CFG=1
M  V30 56 1 53 22
M  V30 END BOND
M  V30 END CTAB
M  END
>  <i_epik_Tot_Q>  (1) 
1

>  <i_epik_Tot_abs_Q>  (1) 
1

>  <i_i_glide_confnum>  (1) 
50

>  <i_i_glide_lignum>  (1) 
94

>  <i_i_glide_posenum>  (1) 
367

>  <i_i_glide_rotatable_bonds>  (1) 
5

>  <i_lp_mmshare_version>  (1) 
72125

>  <i_m_source_file_index>  (1) 
50

>  <i_f3d_flags>  (1) 
0

>  <num_sample>  (1) 
100

>  <b_lp_Chiralities_Consistent>  (1) 
1

>  <r_epik_Charging_Adjusted_Penalty>  (1) 
1.8117775797116225

>  <r_epik_Ionization_Penalty>  (1) 
0.90588925903239437

>  <r_epik_Ionization_Penalty_Charging>  (1) 
0.90588878985581123

>  <r_epik_Ionization_Penalty_Neutral>  (1) 
4.6917658313918283e-07

>  <r_epik_State_Penalty>  (1) 
0.90588878985581134

>  <r_glide_ring_energy>  (1) 
0.012110018449817897

>  <r_i_docking_score>  (1) 
-4.6501722468376343

>  <r_i_glide_ecoul>  (1) 
-6.5970893223431002

>  <r_i_glide_eff_state_penalty>  (1) 
0.90588878985581134

>  <r_i_glide_einternal>  (1) 
9.2268537376204041

>  <r_i_glide_emodel>  (1) 
-38.149798113340381

>  <r_i_glide_emodel_strain>  (1) 
0.10924827176840068

>  <r_i_glide_energy>  (1) 
-32.33535178566855

>  <r_i_glide_erotb>  (1) 
0.63659216225735071

>  <r_i_glide_esite>  (1) 
-0.10000000000000001

>  <r_i_glide_evdw>  (1) 
-25.738262463325452

>  <r_i_glide_gscore>  (1) 
-5.5560610366934453

>  <r_i_glide_gscore_strain>  (1) 
0

>  <r_i_glide_hbond>  (1) 
-0.20000000000000001

>  <r_i_glide_ligand_efficiency>  (1) 
-0.19375717695156811

>  <r_i_glide_ligand_efficiency_ln>  (1) 
-1.1129996011684635

>  <r_i_glide_ligand_efficiency_sa>  (1) 
-0.55889241040475113

>  <r_i_glide_lipo>  (1) 
-1.5457477089368643

>  <r_i_glide_metal>  (1) 
-0

>  <r_i_glide_rewards>  (1) 
-2.0704289684961941

>  <r_lp_Energy>  (1) 
30.269361

>  <r_lp_tautomer_probability>  (1) 
0.99998600000000004

>  <s_epik_Chemistry_Notes>  (1) 
This compound has an imine and may undergo hydrolysis. This compound contains an acetal/aminal-like group ( X-CH(R)-Y where X, Y are N, S, or O) that may be acid/base labile, releasing an aldehyde.

>  <s_epik_cmdline>  (1) 
J2VwaWtfcHl0aG9uJywgJy1waHQnLCAnMS4wJywgJy1waCcsICc3LjQnLCAnLXRuJywgJzgnLCAnLW1hJywgJzUwMCcsICctaW1hZScsICc8aW5maWxlLm1hZT4nLCAnLW9tYWUnLCAnPG91dGZpbGUubWFlPic=

>  <s_epik_input>  (1) 
W2NIXTFbY0hdW2NIXVtjSF1bY0hdYzFbQ0BASF0oW05IXTIpU1tDQEBIXShbQ0BIXTIzKVtDSDJdW0NIMl1OPUMzW0NIMl1bQ0BIXTRbQ0gyXVtDSDJdW0NASF0oW0NIMl1bQ0gyXTQpW0NIMl1bT0hd

>  <s_glide_docking_method>  (1) 
confgen

>  <s_i_glide_gridfile>  (1) 
gpcr_drd2_6luq_protein_autoprepared_prepared

>  <s_lp_Force_Field>  (1) 
S-OPLS

>  <s_lp_Variant>  (1) 
DiffSBDD_49_num_sample_100-4

>  <s_m_source_file>  (1) 
generated__ligand_DiffSBDD_2026-05-06_prepared.sdf

>  <GenAI_Model>  (1) 
DiffSBDD

>  <Protein>  (1) 
generic_title2

$$$$
DiffSBDD_25_num_sample_100
     RDKit          3D

  0  0  0  0  0  0  0  0  0  0999 V3000
M  V30 BEGIN CTAB
M  V30 COUNTS 65 68 0 0 1
M  V30 BEGIN ATOM
M  V30 1 C 12.572483 7.104038 -1.962266 0
M  V30 2 C 6.600382 6.834544 -13.888823 0
M  V30 3 C 8.340903 7.583811 -12.085189 0
M  V30 4 C 11.259721 7.494026 -8.138947 0 CFG=2
M  V30 5 C 7.070913 2.402337 -12.976832 0
M  V30 6 O 7.936116 3.666599 -14.645074 0
M  V30 7 C 8.711799 4.073836 -13.527818 0 CFG=1
M  V30 8 C 6.664104 3.217461 -14.193915 0 CFG=2
M  V30 9 F 5.624892 7.369410 -13.155340 0
M  V30 10 C 5.705161 4.386875 -13.837521 0
M  V30 11 C 11.380336 9.370102 -5.485295 0
M  V30 12 C 8.860547 5.598614 -13.564282 0
M  V30 13 F 7.034195 7.754169 -14.752120 0
M  V30 14 C 9.066726 6.315844 -8.754623 0 CFG=1
M  V30 15 N 11.779647 9.769300 -4.224226 0
M  V30 16 C 7.743135 6.433601 -12.926102 0 CFG=2
M  V30 17 O 9.147839 8.569289 -7.891661 0
M  V30 18 C 11.914089 5.732097 -6.440881 0
M  V30 19 C 8.634934 6.123112 -10.183282 0
M  V30 20 F 9.770033 5.228715 -8.459642 0
M  V30 21 C 11.132456 7.025591 -6.647669 0 CFG=1
M  V30 22 C 9.719139 8.183755 -10.174686 0
M  V30 23 C 12.053038 8.618503 -3.619893 0
M  V30 24 C 12.241362 8.670120 -8.392133 0
M  V30 25 C 8.141258 3.279702 -12.342486 0
M  V30 26 O 11.834311 7.509773 -4.370012 0
M  V30 27 O 12.915425 8.559611 -9.631488 0
M  V30 28 C 5.958647 5.665706 -14.677484 0
M  V30 29 N 9.261760 7.115417 -11.039984 0
M  V30 30 C 11.434835 8.007916 -5.569305 0
M  V30 31 O 12.498430 8.461967 -2.366793 0
M  V30 32 C 9.836516 7.657355 -8.726148 0 CFG=1
M  V30 33 H 13.034859 7.062594 -0.992262 0
M  V30 34 H 11.580880 6.650587 -1.890585 0
M  V30 35 H 13.190794 6.504404 -2.634039 0
M  V30 36 H 7.523159 8.140909 -11.625253 0
M  V30 37 H 8.861702 8.292257 -12.723146 0
M  V30 38 H 11.675519 6.667426 -8.711008 0
M  V30 39 H 6.239521 2.185607 -12.305967 0
M  V30 40 H 7.501259 1.451860 -13.297049 0
M  V30 41 H 9.744532 3.769304 -13.576711 0
M  V30 42 H 6.235336 2.587950 -14.970001 0
M  V30 43 H 5.743488 4.610082 -12.776726 0
M  V30 44 H 4.669975 4.061836 -13.891660 0
M  V30 45 H 11.089372 10.092415 -6.233284 0
M  V30 46 H 8.979765 5.887909 -14.606165 0
M  V30 47 H 9.822990 5.830338 -13.110580 0
M  V30 48 H 8.234741 6.300372 -8.057588 0
M  V30 49 H 7.244094 5.820071 -12.199833 0
M  V30 50 H 8.239481 8.541498 -8.177312 0
M  V30 51 H 11.831622 5.369317 -5.420993 0
M  V30 52 H 11.518186 4.969310 -7.090638 0
M  V30 53 H 12.965000 5.769268 -6.691670 0
M  V30 54 H 7.551511 6.167055 -10.226971 0
M  V30 55 H 8.932390 5.133638 -10.518567 0
M  V30 56 H 10.104960 6.727907 -6.438797 0
M  V30 57 H 9.008775 9.010261 -10.206249 0
M  V30 58 H 10.655234 8.570932 -10.559910 0
M  V30 59 H 13.028531 8.680875 -7.639303 0
M  V30 60 H 11.729037 9.630018 -8.353684 0
M  V30 61 H 8.921550 2.665216 -11.891700 0
M  V30 62 H 7.687857 3.880788 -11.563989 0
M  V30 63 H 13.515631 9.293402 -9.723076 0
M  V30 64 H 5.022909 6.012489 -15.109638 0
M  V30 65 H 6.572305 5.432849 -15.547329 0
M  V30 END ATOM
M  V30 BEGIN BOND
M  V30 1 1 7 6
M  V30 2 1 8 5
M  V30 3 1 8 6
M  V30 4 1 9 2
M  V30 5 1 10 8
M  V30 6 1 12 7
M  V30 7 1 13 2
M  V30 8 1 15 11
M  V30 9 1 16 2
M  V30 10 1 16 3
M  V30 11 1 16 12
M  V30 12 1 19 14
M  V30 13 1 20 14
M  V30 14 1 21 4
M  V30 15 1 21 18
M  V30 16 2 23 15
M  V30 17 1 24 4
M  V30 18 1 25 5
M  V30 19 1 25 7
M  V30 20 1 26 23
M  V30 21 1 27 24
M  V30 22 1 28 2
M  V30 23 1 28 10
M  V30 24 1 29 3
M  V30 25 1 29 19
M  V30 26 1 29 22
M  V30 27 2 30 11
M  V30 28 1 30 21
M  V30 29 1 30 26
M  V30 30 1 31 1
M  V30 31 1 31 23
M  V30 32 1 32 4
M  V30 33 1 32 14
M  V30 34 1 32 17 CFG=1
M  V30 35 1 32 22
M  V30 36 1 33 1
M  V30 37 1 34 1
M  V30 38 1 35 1
M  V30 39 1 36 3
M  V30 40 1 37 3
M  V30 41 1 4 38 CFG=3
M  V30 42 1 39 5
M  V30 43 1 40 5
M  V30 44 1 7 41 CFG=3
M  V30 45 1 8 42 CFG=3
M  V30 46 1 43 10
M  V30 47 1 44 10
M  V30 48 1 45 11
M  V30 49 1 46 12
M  V30 50 1 47 12
M  V30 51 1 14 48 CFG=1
M  V30 52 1 16 49 CFG=1
M  V30 53 1 50 17
M  V30 54 1 51 18
M  V30 55 1 52 18
M  V30 56 1 53 18
M  V30 57 1 54 19
M  V30 58 1 55 19
M  V30 59 1 21 56 CFG=1
M  V30 60 1 57 22
M  V30 61 1 58 22
M  V30 62 1 59 24
M  V30 63 1 60 24
M  V30 64 1 61 25
M  V30 65 1 62 25
M  V30 66 1 63 27
M  V30 67 1 64 28
M  V30 68 1 65 28
M  V30 END BOND
M  V30 END CTAB
M  END
>  <i_epik_Tot_Q>  (1) 
0

>  <i_epik_Tot_abs_Q>  (1) 
0

>  <i_i_glide_confnum>  (1) 
333

>  <i_i_glide_lignum>  (1) 
40

>  <i_i_glide_posenum>  (1) 
379

>  <i_i_glide_rotatable_bonds>  (1) 
9

>  <i_lp_mmshare_version>  (1) 
72125

>  <i_m_source_file_index>  (1) 
26

>  <i_f3d_flags>  (1) 
0

>  <num_sample>  (1) 
100

>  <b_lp_Chiralities_Consistent>  (1) 
1

>  <r_epik_Charging_Adjusted_Penalty>  (1) 
1.0631091651627218

>  <r_epik_Ionization_Penalty>  (1) 
1.0631126298453322

>  <r_epik_Ionization_Penalty_Charging>  (1) 
0

>  <r_epik_Ionization_Penalty_Neutral>  (1) 
1.0631126298453322

>  <r_epik_State_Penalty>  (1) 
1.0631091651627218

>  <r_glide_ring_energy>  (1) 
1.3601753823805443

>  <r_i_docking_score>  (1) 
-4.6477031683712529

>  <r_i_glide_ecoul>  (1) 
-7.5366161230153788

>  <r_i_glide_eff_state_penalty>  (1) 
1.0631091651627218

>  <r_i_glide_einternal>  (1) 
10.585677972432226

>  <r_i_glide_emodel>  (1) 
-37.64056484858277

>  <r_i_glide_emodel_strain>  (1) 
6.4224043861399167

>  <r_i_glide_energy>  (1) 
-36.028465358466349

>  <r_i_glide_erotb>  (1) 
0.56501407927423541

>  <r_i_glide_esite>  (1) 
-0.0025618040623221192

>  <r_i_glide_evdw>  (1) 
-28.491849235450967

>  <r_i_glide_gscore>  (1) 
-5.7108123335339744

>  <r_i_glide_gscore_strain>  (1) 
0.60560109653497918

>  <r_i_glide_hbond>  (1) 
-0.45599999999999996

>  <r_i_glide_ligand_efficiency>  (1) 
-0.14524072401160165

>  <r_i_glide_ligand_efficiency_ln>  (1) 
-1.040747431001785

>  <r_i_glide_ligand_efficiency_sa>  (1) 
-0.46111055616927887

>  <r_i_glide_lipo>  (1) 
-2.7912207874583719

>  <r_i_glide_metal>  (1) 
-0

>  <r_i_glide_rewards>  (1) 
-1.0765600375976403

>  <r_lp_Energy>  (1) 
23.195093

>  <s_epik_cmdline>  (1) 
J2VwaWtfcHl0aG9uJywgJy1waHQnLCAnMS4wJywgJy1waCcsICc3LjQnLCAnLXRuJywgJzgnLCAnLW1hJywgJzUwMCcsICctaW1hZScsICc8aW5maWxlLm1hZT4nLCAnLW9tYWUnLCAnPG91dGZpbGUubWFlPic=

>  <s_epik_input>  (1) 
W0NIM11PYzFuW2NIXWMobzEpW0NASF0oW0NIM10pW0NASF0oW0NIMl1bT0hdKVtDQF0yKFtPSF0pW0NASF0oRilbQ0gyXU4oW0NIMl0yKVtDSDJdW0NASF0oW0NIMl0zKUMoRikoRilbQ0gyXVtDSDJdW0NASF0oW0NIMl1bQ0gyXTQpT1tDQEBIXTM0

>  <s_glide_docking_method>  (1) 
confgen

>  <s_i_glide_gridfile>  (1) 
gpcr_drd2_6luq_protein_autoprepared_prepared

>  <s_lp_Force_Field>  (1) 
S-OPLS

>  <s_lp_Variant>  (1) 
DiffSBDD_25_num_sample_100-3

>  <s_m_source_file>  (1) 
generated__ligand_DiffSBDD_2026-05-06_prepared.sdf

>  <GenAI_Model>  (1) 
DiffSBDD

>  <Protein>  (1) 
generic_title2

$$$$
DiffSBDD_45_num_sample_100
     RDKit          3D

  0  0  0  0  0  0  0  0  0  0999 V3000
M  V30 BEGIN CTAB
M  V30 COUNTS 63 65 0 0 1
M  V30 BEGIN ATOM
M  V30 1 C 6.110584 6.005193 -19.749561 0
M  V30 2 C 9.379210 6.900732 -10.568863 0
M  V30 3 C 4.666295 6.518501 -19.817884 0
M  V30 4 C 10.118766 8.336947 -7.074220 0 CFG=2
M  V30 5 C 9.666540 7.395470 -8.198496 0 CFG=1
M  V30 6 C 12.508163 8.825209 -7.573506 0
M  V30 7 C 7.994443 5.432531 -15.590762 0
M  V30 8 C 6.252058 6.384274 -17.239637 0 CFG=1
M  V30 9 O 8.737642 5.369303 -16.571350 0
M  V30 10 N 10.021661 7.771609 -9.572158 0
M  V30 11 Cl 10.234227 5.743418 -7.891745 0
M  V30 12 C 6.924346 6.455644 -12.720834 0 CFG=1
M  V30 13 C 6.684844 3.879906 -13.041800 0
M  V30 14 C 4.234896 7.195866 -18.527521 0
M  V30 15 C 7.840962 7.698790 -12.553612 0
M  V30 16 N 11.517630 8.161803 -6.734257 0
M  V30 17 C 5.767176 6.784153 -13.659250 0
M  V30 18 C 9.259792 7.549253 -11.960627 0
M  V30 19 C 4.933931 7.135067 -17.384281 0
M  V30 20 C 11.465437 7.888635 -9.777020 0
M  V30 21 C 7.595649 5.125340 -13.122949 0 CFG=1
M  V30 22 C 6.518858 5.885953 -15.774605 0 CFG=2
M  V30 23 F 9.434856 8.040293 -5.981633 0
M  V30 24 O 6.252274 7.032383 -14.966620 0
M  V30 25 C 6.377790 5.340548 -18.394261 0
M  V30 26 C 12.089826 9.075600 -9.037811 0
M  V30 27 N 8.439807 5.131917 -14.340286 0
M  V30 28 C 9.833862 4.760842 -14.154458 0
M  V30 29 H 6.807485 6.832876 -19.891601 0
M  V30 30 H 6.294360 5.303577 -20.563675 0
M  V30 31 H 8.394311 6.569329 -10.238644 0
M  V30 32 H 9.941974 5.971537 -10.659557 0
M  V30 33 H 4.002950 5.673319 -20.001354 0
M  V30 34 H 4.553223 7.210641 -20.651958 0
M  V30 35 H 9.870229 9.369271 -7.292707 0
M  V30 36 H 8.596333 7.334304 -8.123452 0
M  V30 37 H 13.428693 8.244145 -7.566103 0
M  V30 38 H 12.752836 9.769300 -7.091490 0
M  V30 39 H 6.999403 7.150401 -17.443536 0
M  V30 40 H 6.485307 6.284871 -11.735848 0
M  V30 41 H 6.193753 3.824364 -12.069335 0
M  V30 42 H 5.902505 3.853649 -13.795782 0
M  V30 43 H 7.271074 2.967553 -13.154324 0
M  V30 44 H 3.308576 7.751322 -18.556680 0
M  V30 45 H 7.955200 8.170188 -13.525689 0
M  V30 46 H 7.303462 8.429217 -11.946042 0
M  V30 47 H 11.659632 8.411552 -5.761796 0
M  V30 48 H 5.256450 7.681572 -13.308001 0
M  V30 49 H 5.019107 5.994448 -13.663536 0
M  V30 50 H 9.900788 7.016414 -12.650692 0
M  V30 51 H 9.683250 8.553188 -11.927341 0
M  V30 52 H 4.563324 7.647139 -16.508758 0
M  V30 53 H 11.981371 6.969305 -9.511998 0
M  V30 54 H 11.660839 8.034511 -10.838604 0
M  V30 55 H 8.277445 4.960834 -12.289458 0
M  V30 56 H 5.834847 5.069650 -15.560179 0
M  V30 57 H 7.357954 4.872995 -18.436760 0
M  V30 58 H 5.662798 4.526282 -18.291471 0
M  V30 59 H 12.985613 9.359325 -9.584746 0
M  V30 60 H 11.434840 9.941639 -9.107634 0
M  V30 61 H 10.176543 4.179876 -15.009428 0
M  V30 62 H 10.477946 5.637070 -14.122158 0
M  V30 63 H 9.983603 4.169199 -13.251276 0
M  V30 END ATOM
M  V30 BEGIN BOND
M  V30 1 1 3 1
M  V30 2 1 5 4
M  V30 3 2 9 7
M  V30 4 1 10 2
M  V30 5 1 10 5
M  V30 6 1 11 5
M  V30 7 1 14 3
M  V30 8 1 15 12
M  V30 9 1 16 4
M  V30 10 1 16 6
M  V30 11 1 17 12
M  V30 12 1 18 2
M  V30 13 1 18 15
M  V30 14 1 19 8
M  V30 15 2 19 14
M  V30 16 1 20 10
M  V30 17 1 21 12
M  V30 18 1 21 13
M  V30 19 1 22 7
M  V30 20 1 22 8
M  V30 21 1 23 4
M  V30 22 1 24 17
M  V30 23 1 24 22
M  V30 24 1 25 1
M  V30 25 1 25 8
M  V30 26 1 26 6
M  V30 27 1 26 20
M  V30 28 1 27 7
M  V30 29 1 27 21
M  V30 30 1 28 27
M  V30 31 1 29 1
M  V30 32 1 30 1
M  V30 33 1 31 2
M  V30 34 1 32 2
M  V30 35 1 33 3
M  V30 36 1 34 3
M  V30 37 1 4 35 CFG=3
M  V30 38 1 5 36 CFG=3
M  V30 39 1 37 6
M  V30 40 1 38 6
M  V30 41 1 8 39 CFG=3
M  V30 42 1 12 40 CFG=1
M  V30 43 1 41 13
M  V30 44 1 42 13
M  V30 45 1 43 13
M  V30 46 1 44 14
M  V30 47 1 45 15
M  V30 48 1 46 15
M  V30 49 1 47 16
M  V30 50 1 48 17
M  V30 51 1 49 17
M  V30 52 1 50 18
M  V30 53 1 51 18
M  V30 54 1 52 19
M  V30 55 1 53 20
M  V30 56 1 54 20
M  V30 57 1 21 55 CFG=1
M  V30 58 1 22 56 CFG=1
M  V30 59 1 57 25
M  V30 60 1 58 25
M  V30 61 1 59 26
M  V30 62 1 60 26
M  V30 63 1 61 28
M  V30 64 1 62 28
M  V30 65 1 63 28
M  V30 END BOND
M  V30 END CTAB
M  END
>  <i_epik_Tot_Q>  (1) 
0

>  <i_epik_Tot_abs_Q>  (1) 
0

>  <i_i_glide_confnum>  (1) 
294

>  <i_i_glide_lignum>  (1) 
83

>  <i_i_glide_posenum>  (1) 
264

>  <i_i_glide_rotatable_bonds>  (1) 
5

>  <i_lp_mmshare_version>  (1) 
72125

>  <i_m_source_file_index>  (1) 
46

>  <i_f3d_flags>  (1) 
0

>  <num_sample>  (1) 
100

>  <b_lp_Chiralities_Consistent>  (1) 
1

>  <r_epik_Charging_Adjusted_Penalty>  (1) 
0.015133208647659156

>  <r_epik_Ionization_Penalty>  (1) 
0.015206278080010002

>  <r_epik_Ionization_Penalty_Charging>  (1) 
0

>  <r_epik_Ionization_Penalty_Neutral>  (1) 
0.015206278080010002

>  <r_epik_State_Penalty>  (1) 
0.015133208647659156

>  <r_glide_ring_energy>  (1) 
0.92753117685040032

>  <r_i_docking_score>  (1) 
-4.6284226306941525

>  <r_i_glide_ecoul>  (1) 
-0.41972293521784643

>  <r_i_glide_eff_state_penalty>  (1) 
0.015133208647659156

>  <r_i_glide_einternal>  (1) 
6.0902165308744376

>  <r_i_glide_emodel>  (1) 
-24.143955733820849

>  <r_i_glide_emodel_strain>  (1) 
3.5351109704056256

>  <r_i_glide_energy>  (1) 
-24.447568321475714

>  <r_i_glide_erotb>  (1) 
0.45657733151366331

>  <r_i_glide_esite>  (1) 
-0.025359993019088228

>  <r_i_glide_evdw>  (1) 
-24.027845386257869

>  <r_i_glide_gscore>  (1) 
-4.6435558393418113

>  <r_i_glide_gscore_strain>  (1) 
0

>  <r_i_glide_hbond>  (1) 
0

>  <r_i_glide_ligand_efficiency>  (1) 
-0.16530080823907686

>  <r_i_glide_ligand_efficiency_ln>  (1) 
-1.0683758395577148

>  <r_i_glide_ligand_efficiency_sa>  (1) 
-0.50195061134091457

>  <r_i_glide_lipo>  (1) 
-2.3896570069360972

>  <r_i_glide_metal>  (1) 
-0

>  <r_i_glide_rewards>  (1) 
-1.4207654613047178

>  <r_lp_Energy>  (1) 
28.740504999999999

>  <s_epik_cmdline>  (1) 
J2VwaWtfcHl0aG9uJywgJy1waHQnLCAnMS4wJywgJy1waCcsICc3LjQnLCAnLXRuJywgJzgnLCAnLW1hJywgJzUwMCcsICctaW1hZScsICc8aW5maWxlLm1hZT4nLCAnLW9tYWUnLCAnPG91dGZpbGUubWFlPic=

>  <s_epik_input>  (1) 
W0NIMl0xW0NIMl1bQ0gyXVtDSF09W0NIXVtDQEhdMVtDQEBIXShDMj1PKU9bQ0gyXVtDQEBIXShbQ0BASF0oW0NIM10pTjJbQ0gzXSlbQ0gyXVtDSDJdW0NIMl1OKFtDQEBIXShDbClbQ0BASF0zRilbQ0gyXVtDSDJdW0NIMl1bTkhdMw==

>  <s_glide_docking_method>  (1) 
confgen

>  <s_i_glide_gridfile>  (1) 
gpcr_drd2_6luq_protein_autoprepared_prepared

>  <s_lp_Force_Field>  (1) 
S-OPLS

>  <s_lp_Variant>  (1) 
DiffSBDD_45_num_sample_100-2

>  <s_m_source_file>  (1) 
generated__ligand_DiffSBDD_2026-05-06_prepared.sdf

>  <GenAI_Model>  (1) 
DiffSBDD

>  <Protein>  (1) 
generic_title2

$$$$
DiffSBDD_11_num_sample_100
     RDKit          3D

  0  0  0  0  0  0  0  0  0  0999 V3000
M  V30 BEGIN CTAB
M  V30 COUNTS 56 58 0 0 1
M  V30 BEGIN ATOM
M  V30 1 C 7.491900 5.072647 -16.648057 0 CFG=1
M  V30 2 C 10.334699 7.601351 -8.586806 0 CFG=2
M  V30 3 N 6.322176 6.569876 -18.266486 0
M  V30 4 C 9.009766 5.220698 -9.883215 0 CFG=1
M  V30 5 O 4.834334 5.944091 -19.853078 0
M  V30 6 C 7.579757 3.604575 -16.184409 0
M  V30 7 S 8.680900 5.381430 -8.122337 0
M  V30 8 O 12.609903 9.465763 -6.161145 0
M  V30 9 O 10.612209 6.969264 -9.838803 0
M  V30 10 C 7.814000 4.568940 -10.548208 0
M  V30 11 C 6.917725 5.787468 -14.186457 0
M  V30 12 C 9.910464 6.846102 -6.217006 0
M  V30 13 C 11.654946 8.187063 -8.029630 0
M  V30 14 C 7.069455 5.073076 -11.780101 0
M  V30 15 C 5.547263 4.922681 -11.689056 0
M  V30 16 C 5.613116 6.775780 -19.388715 0
M  V30 17 C 9.708479 6.687166 -7.536714 0
M  V30 18 C 6.234990 5.331042 -17.501251 0
M  V30 19 C 7.722141 5.496311 -12.919330 0
M  V30 20 C 5.815210 8.114492 -20.089494 0
M  V30 21 Cl 11.834816 7.327186 -4.291686 0
M  V30 22 C 9.495633 6.459630 -10.578059 0 CFG=1
M  V30 23 C 7.684469 6.083681 -15.490500 0
M  V30 24 C 10.768223 7.937180 -5.607604 0 CFG=1
M  V30 25 C 11.436201 8.857301 -6.656041 0 CFG=1
M  V30 26 O 5.689161 5.785823 -14.225215 0
M  V30 27 C 9.978041 6.059966 -11.963494 0
M  V30 28 C 9.191445 5.656976 -12.990628 0
M  V30 29 H 8.341992 5.216114 -17.317039 0
M  V30 30 H 9.633426 8.418614 -8.766138 0
M  V30 31 H 6.943411 7.291538 -17.933539 0
M  V30 32 H 9.834850 4.506341 -9.906071 0
M  V30 33 H 6.746427 3.326194 -15.537771 0
M  V30 34 H 8.503628 3.421990 -15.634702 0
M  V30 35 H 7.569097 2.923080 -17.035455 0
M  V30 36 H 12.934002 10.070946 -6.808360 0
M  V30 37 H 8.265519 3.697524 -11.004996 0
M  V30 38 H 7.122328 4.169557 -9.805992 0
M  V30 39 H 9.435794 6.169196 -5.523142 0
M  V30 40 H 12.393845 7.392057 -7.927873 0
M  V30 41 H 12.065158 8.906803 -8.738843 0
M  V30 42 H 5.044577 5.870987 -11.880205 0
M  V30 43 H 5.231879 4.631193 -10.688077 0
M  V30 44 H 5.176725 4.154667 -12.367941 0
M  V30 45 H 6.108924 4.496737 -18.194784 0
M  V30 46 H 5.344878 5.369780 -16.876534 0
M  V30 47 H 6.872737 8.287737 -20.291611 0
M  V30 48 H 5.433209 8.933185 -19.479964 0
M  V30 49 H 5.285519 8.126627 -21.042451 0
M  V30 50 H 8.716095 7.215850 -10.677995 0
M  V30 51 H 8.751083 6.170852 -15.368846 0
M  V30 52 H 7.328870 7.056043 -15.806712 0
M  V30 53 H 10.072325 8.576362 -5.091707 0
M  V30 54 H 10.742713 9.680875 -6.804965 0
M  V30 55 H 11.040730 6.146089 -12.131709 0
M  V30 56 H 9.683645 5.454753 -13.923481 0
M  V30 END ATOM
M  V30 BEGIN BOND
M  V30 1 1 6 1
M  V30 2 1 7 4
M  V30 3 1 9 2
M  V30 4 1 10 4
M  V30 5 1 13 2
M  V30 6 1 14 10
M  V30 7 1 15 14
M  V30 8 1 16 3
M  V30 9 2 16 5
M  V30 10 1 17 2
M  V30 11 1 17 7
M  V30 12 2 17 12
M  V30 13 1 18 1
M  V30 14 1 18 3
M  V30 15 1 19 11
M  V30 16 2 19 14
M  V30 17 1 20 16
M  V30 18 1 22 4
M  V30 19 1 22 9
M  V30 20 1 23 1
M  V30 21 1 23 11
M  V30 22 1 24 12
M  V30 23 1 24 21
M  V30 24 1 25 8
M  V30 25 1 25 13
M  V30 26 1 25 24
M  V30 27 2 26 11
M  V30 28 1 27 22
M  V30 29 1 28 19
M  V30 30 2 28 27
M  V30 31 1 1 29 CFG=3
M  V30 32 1 2 30 CFG=3
M  V30 33 1 31 3
M  V30 34 1 4 32 CFG=1
M  V30 35 1 33 6
M  V30 36 1 34 6
M  V30 37 1 35 6
M  V30 38 1 36 8
M  V30 39 1 37 10
M  V30 40 1 38 10
M  V30 41 1 39 12
M  V30 42 1 40 13
M  V30 43 1 41 13
M  V30 44 1 42 15
M  V30 45 1 43 15
M  V30 46 1 44 15
M  V30 47 1 45 18
M  V30 48 1 46 18
M  V30 49 1 47 20
M  V30 50 1 48 20
M  V30 51 1 49 20
M  V30 52 1 22 50 CFG=3
M  V30 53 1 51 23
M  V30 54 1 52 23
M  V30 55 1 24 53 CFG=1
M  V30 56 1 25 54 CFG=3
M  V30 57 1 55 27
M  V30 58 1 56 28
M  V30 END BOND
M  V30 END CTAB
M  END
>  <i_epik_Tot_Q>  (1) 
0

>  <i_epik_Tot_abs_Q>  (1) 
0

>  <i_i_glide_confnum>  (1) 
16

>  <i_i_glide_lignum>  (1) 
19

>  <i_i_glide_posenum>  (1) 
267

>  <i_i_glide_rotatable_bonds>  (1) 
7

>  <i_lp_mmshare_version>  (1) 
72125

>  <i_m_source_file_index>  (1) 
12

>  <i_f3d_flags>  (1) 
0

>  <num_sample>  (1) 
100

>  <b_lp_Chiralities_Consistent>  (1) 
1

>  <r_epik_Charging_Adjusted_Penalty>  (1) 
0

>  <r_epik_Ionization_Penalty>  (1) 
0.000136015572717869

>  <r_epik_Ionization_Penalty_Charging>  (1) 
0

>  <r_epik_Ionization_Penalty_Neutral>  (1) 
0.000136015572717869

>  <r_epik_State_Penalty>  (1) 
-0

>  <r_glide_ring_energy>  (1) 
0

>  <r_i_docking_score>  (1) 
-4.6259405880437541

>  <r_i_glide_ecoul>  (1) 
-1.9136289504857644

>  <r_i_glide_eff_state_penalty>  (1) 
-0

>  <r_i_glide_einternal>  (1) 
10.152444994402781

>  <r_i_glide_emodel>  (1) 
-31.594777859031815

>  <r_i_glide_emodel_strain>  (1) 
4.4966081384352492

>  <r_i_glide_energy>  (1) 
-35.816891793044647

>  <r_i_glide_erotb>  (1) 
0.5467392007768872

>  <r_i_glide_esite>  (1) 
0

>  <r_i_glide_evdw>  (1) 
-33.903262842558881

>  <r_i_glide_gscore>  (1) 
-4.6259405880437541

>  <r_i_glide_gscore_strain>  (1) 
0.1241520346088123

>  <r_i_glide_hbond>  (1) 
0

>  <r_i_glide_ligand_efficiency>  (1) 
-0.16521216385870549

>  <r_i_glide_ligand_efficiency_ln>  (1) 
-1.067802911238064

>  <r_i_glide_ligand_efficiency_sa>  (1) 
-0.50168143479306015

>  <r_i_glide_lipo>  (1) 
-1.6444633974039224

>  <r_i_glide_metal>  (1) 
-0

>  <r_i_glide_rewards>  (1) 
-1.6701609413247218

>  <r_lp_Energy>  (1) 
20.078344999999999

>  <r_lp_tautomer_probability>  (1) 
1

>  <s_epik_cmdline>  (1) 
J2VwaWtfcHl0aG9uJywgJy1waHQnLCAnMS4wJywgJy1waCcsICc3LjQnLCAnLXRuJywgJzgnLCAnLW1hJywgJzUwMCcsICctaW1hZScsICc8aW5maWxlLm1hZT4nLCAnLW9tYWUnLCAnPG91dGZpbGUubWFlPic=

>  <s_epik_input>  (1) 
Tz1DKFtDSDNdKVtOSF1bQ0gyXVtDQEhdKFtDSDNdKVtDSDJdQyg9TylDKD1DKFtDSDJdMSlbQ0gzXSlbQ0hdPVtDSF1bQ0BIXShPMilbQ0BIXTFTQyhbQ0BASF0yMyk9W0NIXVtDQEBIXShDbClbQ0BASF0oW09IXSlbQ0gyXTM=

>  <s_glide_docking_method>  (1) 
confgen

>  <s_i_glide_gridfile>  (1) 
gpcr_drd2_6luq_protein_autoprepared_prepared

>  <s_lp_Force_Field>  (1) 
S-OPLS

>  <s_lp_Variant>  (1) 
DiffSBDD_11_num_sample_100-2

>  <s_m_source_file>  (1) 
generated__ligand_DiffSBDD_2026-05-06_prepared.sdf

>  <GenAI_Model>  (1) 
DiffSBDD

>  <Protein>  (1) 
generic_title2

$$$$
DiffSBDD_15_num_sample_100
     RDKit          3D

  0  0  0  0  0  0  0  0  0  0999 V3000
M  V30 BEGIN CTAB
M  V30 COUNTS 48 51 0 0 1
M  V30 BEGIN ATOM
M  V30 1 C 9.034841 5.702207 -9.576063 0
M  V30 2 C 11.430291 8.448352 -6.746732 0
M  V30 3 C 9.255850 6.157415 -7.169189 0
M  V30 4 C 8.166315 4.843760 -15.681574 0
M  V30 5 C 10.131540 6.969296 -11.324782 0
M  V30 6 C 9.269961 5.930619 -10.940511 0
M  V30 7 C 11.034833 7.342932 -5.849392 0
M  V30 8 C 8.591754 5.079370 -11.949156 0
M  V30 9 C 8.588184 3.657714 -16.558202 0
M  V30 10 C 9.820981 6.534994 -6.018629 0
M  V30 11 C 6.715684 0.888653 -14.593580 0
M  V30 12 C 10.752572 7.769300 -10.358423 0
M  V30 13 C 7.631702 2.476530 -16.328228 0 CFG=2
M  V30 14 C 9.646602 6.491806 -8.567923 0
M  V30 15 C 11.240670 8.520289 -8.067901 0
M  V30 16 F 7.757881 1.657436 -18.504560 0
M  V30 17 C 7.630124 2.096706 -14.831958 0 CFG=1
M  V30 18 N 8.080350 4.480179 -14.268490 0
M  V30 19 C 7.022998 -0.227468 -15.597522 0
M  V30 20 C 8.705834 5.249213 -13.285248 0
M  V30 21 F 9.156430 0.839669 -17.091670 0
M  V30 22 C 10.540908 7.562853 -8.975053 0
M  V30 23 O 6.942458 0.253813 -16.934115 0
M  V30 24 C 7.900207 1.261607 -17.239895 0
M  V30 25 C 7.234863 3.316736 -13.970515 0
M  V30 26 H 8.359705 4.909985 -9.286445 0
M  V30 27 H 11.972615 9.251533 -6.269190 0
M  V30 28 H 8.393537 5.511287 -7.091636 0
M  V30 29 H 7.190833 5.213021 -16.000236 0
M  V30 30 H 8.866711 5.667583 -15.822984 0
M  V30 31 H 10.320667 7.162797 -12.366384 0
M  V30 32 H 11.851070 6.631465 -5.772014 0
M  V30 33 H 10.948225 7.794334 -4.860967 0
M  V30 34 H 7.972463 4.288009 -11.562462 0
M  V30 35 H 8.577332 3.958622 -17.606153 0
M  V30 36 H 9.613720 3.370181 -16.328666 0
M  V30 37 H 9.390870 6.169299 -5.100459 0
M  V30 38 H 5.670818 1.168808 -14.688315 0
M  V30 39 H 6.838560 0.514924 -13.576069 0
M  V30 40 H 11.405771 8.566429 -10.679598 0
M  V30 41 H 6.634839 2.825060 -16.579905 0
M  V30 42 H 11.651885 9.385816 -8.565478 0
M  V30 43 H 8.634839 1.785546 -14.548654 0
M  V30 44 H 6.297638 -1.030695 -15.476600 0
M  V30 45 H 8.013299 -0.641843 -15.408038 0
M  V30 46 H 9.312751 6.033500 -13.696397 0
M  V30 47 H 7.278109 3.013467 -12.928428 0
M  V30 48 H 6.198640 3.594129 -14.165651 0
M  V30 END ATOM
M  V30 BEGIN BOND
M  V30 1 2 6 1
M  V30 2 1 6 5
M  V30 3 1 7 2
M  V30 4 1 8 6
M  V30 5 1 9 4
M  V30 6 2 10 3
M  V30 7 1 10 7
M  V30 8 2 12 5
M  V30 9 1 13 9
M  V30 10 1 14 1
M  V30 11 1 14 3
M  V30 12 2 15 2
M  V30 13 1 17 11
M  V30 14 1 17 13
M  V30 15 1 18 4
M  V30 16 1 19 11
M  V30 17 2 20 8
M  V30 18 1 20 18
M  V30 19 1 22 12
M  V30 20 2 22 14
M  V30 21 1 22 15
M  V30 22 1 23 19
M  V30 23 1 24 13
M  V30 24 1 24 16
M  V30 25 1 24 21
M  V30 26 1 24 23
M  V30 27 1 25 17
M  V30 28 1 25 18
M  V30 29 1 26 1
M  V30 30 1 27 2
M  V30 31 1 28 3
M  V30 32 1 29 4
M  V30 33 1 30 4
M  V30 34 1 31 5
M  V30 35 1 32 7
M  V30 36 1 33 7
M  V30 37 1 34 8
M  V30 38 1 35 9
M  V30 39 1 36 9
M  V30 40 1 37 10
M  V30 41 1 38 11
M  V30 42 1 39 11
M  V30 43 1 40 12
M  V30 44 1 13 41 CFG=3
M  V30 45 1 42 15
M  V30 46 1 17 43 CFG=1
M  V30 47 1 44 19
M  V30 48 1 45 19
M  V30 49 1 46 20
M  V30 50 1 47 25
M  V30 51 1 48 25
M  V30 END BOND
M  V30 END CTAB
M  END
>  <i_epik_Tot_Q>  (1) 
0

>  <i_epik_Tot_abs_Q>  (1) 
0

>  <i_i_glide_confnum>  (1) 
6

>  <i_i_glide_lignum>  (1) 
24

>  <i_i_glide_posenum>  (1) 
291

>  <i_i_glide_rotatable_bonds>  (1) 
2

>  <i_lp_mmshare_version>  (1) 
72125

>  <i_m_source_file_index>  (1) 
16

>  <i_f3d_flags>  (1) 
0

>  <num_sample>  (1) 
100

>  <b_lp_Chiralities_Consistent>  (1) 
1

>  <r_epik_Charging_Adjusted_Penalty>  (1) 
0.41067983895260396

>  <r_epik_Ionization_Penalty>  (1) 
0.00043588865487499098

>  <r_epik_Ionization_Penalty_Charging>  (1) 
0

>  <r_epik_Ionization_Penalty_Neutral>  (1) 
0.00043588865487499098

>  <r_epik_State_Penalty>  (1) 
0.41067983895260396

>  <r_glide_ring_energy>  (1) 
0.00060441860772535985

>  <r_i_docking_score>  (1) 
-4.6195428465329842

>  <r_i_glide_ecoul>  (1) 
0.731870255982912

>  <r_i_glide_eff_state_penalty>  (1) 
0.41067983895260396

>  <r_i_glide_einternal>  (1) 
2.3055377916949547

>  <r_i_glide_emodel>  (1) 
-35.651884886852983

>  <r_i_glide_emodel_strain>  (1) 
0

>  <r_i_glide_energy>  (1) 
-29.332742830562275

>  <r_i_glide_erotb>  (1) 
0.32177656458331499

>  <r_i_glide_esite>  (1) 
0

>  <r_i_glide_evdw>  (1) 
-30.064613086545187

>  <r_i_glide_gscore>  (1) 
-5.0302226854855885

>  <r_i_glide_gscore_strain>  (1) 
0

>  <r_i_glide_hbond>  (1) 
0

>  <r_i_glide_ligand_efficiency>  (1) 
-0.18478171386131936

>  <r_i_glide_ligand_efficiency_ln>  (1) 
-1.0949700911562856

>  <r_i_glide_ligand_efficiency_sa>  (1) 
-0.54030500902787204

>  <r_i_glide_lipo>  (1) 
-1.7519780477404745

>  <r_i_glide_metal>  (1) 
-0

>  <r_i_glide_rewards>  (1) 
-2.2065710863986077

>  <r_lp_Energy>  (1) 
29.411313

>  <r_lp_tautomer_probability>  (1) 
0.5

>  <s_epik_cmdline>  (1) 
J2VwaWtfcHl0aG9uJywgJy1waHQnLCAnMS4wJywgJy1waCcsICc3LjQnLCAnLXRuJywgJzgnLCAnLW1hJywgJzUwMCcsICctaW1hZScsICc8aW5maWxlLm1hZT4nLCAnLW9tYWUnLCAnPG91dGZpbGUubWFlPic=

>  <s_epik_input>  (1) 
W0NIXTE9W0NIXVtDSDJdW0NIXT1bQ0hdYyhjMTIpW2NIXVtjSF1jKFtjSF0yKS9bQ0hdPVtDSF0vTihbQ0gyXVtDSDJdMylbQ0gyXVtDQEhdKFtDQEBIXTM0KVtDSDJdW0NIMl1PQzQoRilG

>  <s_glide_docking_method>  (1) 
confgen

>  <s_i_glide_gridfile>  (1) 
gpcr_drd2_6luq_protein_autoprepared_prepared

>  <s_lp_Force_Field>  (1) 
S-OPLS

>  <s_lp_Variant>  (1) 
DiffSBDD_15_num_sample_100-1

>  <s_m_source_file>  (1) 
generated__ligand_DiffSBDD_2026-05-06_prepared.sdf

>  <GenAI_Model>  (1) 
DiffSBDD

>  <Protein>  (1) 
generic_title2

$$$$
DiffSBDD_66_num_sample_100
     RDKit          3D

  0  0  0  0  0  0  0  0  0  0999 V3000
M  V30 BEGIN CTAB
M  V30 COUNTS 88 91 0 0 1
M  V30 BEGIN ATOM
M  V30 1 C 7.246737 2.018311 -16.469862 0
M  V30 2 F 9.355886 4.538078 -11.697591 0
M  V30 3 C 8.647623 4.139453 -16.355498 0 CFG=1
M  V30 4 N 8.884038 2.814278 -19.071434 0
M  V30 5 C 10.058956 1.537407 -20.812120 0
M  V30 6 F 10.925625 4.584576 -16.969528 0
M  V30 7 O 11.367282 8.126317 -9.390067 0
M  V30 8 N 11.112742 3.699621 -21.152583 0
M  V30 9 O 10.800253 6.172056 -12.304049 0
M  V30 10 C 10.030905 2.832142 -18.262953 0
M  V30 11 O 12.251050 1.850254 -21.678791 0
M  V30 12 C 8.570725 5.687809 -16.287649 0
M  V30 13 C 13.144606 3.001099 -21.819784 0
M  V30 14 C 7.230308 6.352806 -15.942531 0
M  V30 15 O 9.648090 -0.643080 -19.796089 0
M  V30 16 C 8.795971 2.129180 -20.300838 0
M  V30 17 O 11.069194 2.222517 -18.513407 0
M  V30 18 C 10.131629 0.019916 -20.952887 0
M  V30 19 C 6.476673 6.972055 -17.127198 0
M  V30 20 C 10.142199 8.043746 -9.379895 0
M  V30 21 C 12.328277 4.321288 -21.541048 0
M  V30 22 O 5.653955 6.269483 -20.192064 0
M  V30 23 C 7.967959 7.130995 -12.574631 0
M  V30 24 C 10.434388 6.241262 -6.662034 0
M  V30 25 C 9.821499 5.766037 -11.374462 0 CFG=1
M  V30 26 O 7.723213 2.024305 -20.895092 0
M  V30 27 C 7.491338 3.436808 -17.031306 0 CFG=1
M  V30 28 N 9.434899 7.839855 -8.258819 0
M  V30 29 C 6.610020 4.972108 -12.612142 0 CFG=2
M  V30 30 C 7.299077 4.823660 -19.254038 0
M  V30 31 C 5.401807 6.093807 -17.789419 0 CFG=1
M  V30 32 O 5.286614 4.709780 -13.094296 0
M  V30 33 C 4.087637 6.887265 -17.942183 0
M  V30 34 C 6.763514 6.457693 -14.673361 0
M  V30 35 C 8.735799 6.844306 -11.257280 0 CFG=1
M  V30 36 C 7.619923 3.462253 -18.566422 0 CFG=1
M  V30 37 C 9.972764 3.649464 -16.961709 0 CFG=2
M  V30 38 C 11.081826 2.355082 -21.195858 0
M  V30 39 C 10.058825 7.701091 -6.940669 0
M  V30 40 C 5.391978 5.431952 -11.858288 0
M  V30 41 C 7.477176 5.928745 -13.425681 0 CFG=1
M  V30 42 C 5.839261 5.370934 -19.114654 0 CFG=1
M  V30 43 C 9.344050 8.171428 -10.687802 0
M  V30 44 H 8.072639 1.337444 -16.678140 0
M  V30 45 H 7.104359 2.045396 -15.386003 0
M  V30 46 H 6.339672 1.578745 -16.895128 0
M  V30 47 H 8.632855 3.817516 -15.313307 0
M  V30 48 H 10.360114 4.249374 -20.759794 0
M  V30 49 H 11.090917 5.405491 -12.777637 0
M  V30 50 H 9.290596 6.007445 -15.536215 0
M  V30 51 H 8.967862 6.139112 -17.199209 0
M  V30 52 H 13.955591 2.912837 -21.090268 0
M  V30 53 H 13.598451 2.995681 -22.809654 0
M  V30 54 H 9.861050 -1.560826 -19.860866 0
M  V30 55 H 11.169643 -0.283848 -21.107042 0
M  V30 56 H 9.558348 -0.304331 -21.819012 0
M  V30 57 H 6.007039 7.881265 -16.738951 0
M  V30 58 H 7.160398 7.344359 -17.887647 0
M  V30 59 H 12.771022 4.919529 -20.739799 0
M  V30 60 H 12.202408 4.922997 -22.439759 0
M  V30 61 H 6.186771 7.032773 -20.032827 0
M  V30 62 H 8.614980 7.743022 -13.189267 0
M  V30 63 H 7.111276 7.768808 -12.345586 0
M  V30 64 H 10.677394 6.089766 -5.609178 0
M  V30 65 H 9.603776 5.580497 -6.910348 0
M  V30 66 H 11.295245 5.931741 -7.255646 0
M  V30 67 H 10.234860 5.660829 -10.385414 0
M  V30 68 H 6.634929 3.995823 -16.737993 0
M  V30 69 H 8.420418 7.764683 -8.321233 0
M  V30 70 H 7.105736 4.086289 -12.229702 0
M  V30 71 H 7.464342 4.672998 -20.323507 0
M  V30 72 H 8.032419 5.579107 -18.996955 0
M  V30 73 H 5.128399 5.369943 -17.044377 0
M  V30 74 H 4.205820 7.749088 -18.603648 0
M  V30 75 H 3.296827 6.250674 -18.325728 0
M  V30 76 H 3.741748 7.257745 -16.977154 0
M  V30 77 H 5.824673 6.966099 -14.501741 0
M  V30 78 H 8.012390 6.427575 -10.562452 0
M  V30 79 H 6.783523 2.827680 -18.873580 0
M  V30 80 H 10.367665 2.911371 -16.291666 0
M  V30 81 H 10.941739 8.336205 -6.843619 0
M  V30 82 H 9.354228 8.048857 -6.181269 0
M  V30 83 H 5.081421 4.876842 -10.974043 0
M  V30 84 H 5.088562 6.475518 -11.916052 0
M  V30 85 H 8.347901 5.356264 -13.728431 0
M  V30 86 H 5.153224 4.545443 -19.301529 0
M  V30 87 H 10.015765 8.571064 -11.441557 0
M  V30 88 H 8.593279 8.954624 -10.552319 0
M  V30 END ATOM
M  V30 BEGIN BOND
M  V30 1 1 10 4
M  V30 2 1 12 3
M  V30 3 1 13 11
M  V30 4 1 14 12
M  V30 5 1 16 4
M  V30 6 1 16 5
M  V30 7 2 17 10
M  V30 8 1 18 5
M  V30 9 1 18 15
M  V30 10 1 19 14
M  V30 11 2 20 7
M  V30 12 1 21 8
M  V30 13 1 21 13
M  V30 14 1 25 2
M  V30 15 1 25 9
M  V30 16 2 26 16
M  V30 17 1 27 1
M  V30 18 1 27 3
M  V30 19 1 28 20
M  V30 20 1 31 19
M  V30 21 1 32 29
M  V30 22 1 33 31
M  V30 23 2 34 14
M  V30 24 1 35 23
M  V30 25 1 35 25
M  V30 26 1 36 4
M  V30 27 1 36 27
M  V30 28 1 36 30
M  V30 29 1 37 3
M  V30 30 1 37 6
M  V30 31 1 37 10
M  V30 32 2 38 5
M  V30 33 1 38 8
M  V30 34 1 38 11
M  V30 35 1 39 24
M  V30 36 1 39 28
M  V30 37 1 40 29
M  V30 38 1 40 32
M  V30 39 1 41 23
M  V30 40 1 41 29
M  V30 41 1 41 34
M  V30 42 1 42 22
M  V30 43 1 42 30
M  V30 44 1 42 31
M  V30 45 1 43 20
M  V30 46 1 43 35
M  V30 47 1 44 1
M  V30 48 1 45 1
M  V30 49 1 46 1
M  V30 50 1 3 47 CFG=1
M  V30 51 1 48 8
M  V30 52 1 49 9
M  V30 53 1 50 12
M  V30 54 1 51 12
M  V30 55 1 52 13
M  V30 56 1 53 13
M  V30 57 1 54 15
M  V30 58 1 55 18
M  V30 59 1 56 18
M  V30 60 1 57 19
M  V30 61 1 58 19
M  V30 62 1 59 21
M  V30 63 1 60 21
M  V30 64 1 61 22
M  V30 65 1 62 23
M  V30 66 1 63 23
M  V30 67 1 64 24
M  V30 68 1 65 24
M  V30 69 1 66 24
M  V30 70 1 25 67 CFG=1
M  V30 71 1 27 68 CFG=3
M  V30 72 1 69 28
M  V30 73 1 29 70 CFG=1
M  V30 74 1 71 30
M  V30 75 1 72 30
M  V30 76 1 31 73 CFG=1
M  V30 77 1 74 33
M  V30 78 1 75 33
M  V30 79 1 76 33
M  V30 80 1 77 34
M  V30 81 1 35 78 CFG=1
M  V30 82 1 36 79 CFG=3
M  V30 83 1 37 80 CFG=1
M  V30 84 1 81 39
M  V30 85 1 82 39
M  V30 86 1 83 40
M  V30 87 1 84 40
M  V30 88 1 41 85 CFG=3
M  V30 89 1 42 86 CFG=3
M  V30 90 1 87 43
M  V30 91 1 88 43
M  V30 END BOND
M  V30 END CTAB
M  END
>  <i_epik_Tot_Q>  (1) 
0

>  <i_epik_Tot_abs_Q>  (1) 
0

>  <i_i_glide_confnum>  (1) 
1819

>  <i_i_glide_lignum>  (1) 
132

>  <i_i_glide_posenum>  (1) 
205

>  <i_i_glide_rotatable_bonds>  (1) 
15

>  <i_lp_mmshare_version>  (1) 
72125

>  <i_m_source_file_index>  (1) 
67

>  <i_f3d_flags>  (1) 
0

>  <num_sample>  (1) 
100

>  <b_lp_Chiralities_Consistent>  (1) 
1

>  <r_epik_Charging_Adjusted_Penalty>  (1) 
0.011224841026204068

>  <r_epik_Ionization_Penalty>  (1) 
0.011270599783865109

>  <r_epik_Ionization_Penalty_Charging>  (1) 
8.5422756824624084e-11

>  <r_epik_Ionization_Penalty_Neutral>  (1) 
0.011270599698442352

>  <r_epik_State_Penalty>  (1) 
0.01122484094078131

>  <r_glide_ring_energy>  (1) 
0

>  <r_i_docking_score>  (1) 
-4.6055047111991065

>  <r_i_glide_ecoul>  (1) 
-6.0746853426322351

>  <r_i_glide_eff_state_penalty>  (1) 
0.01122484094078131

>  <r_i_glide_einternal>  (1) 
11.975615317906875

>  <r_i_glide_emodel>  (1) 
-28.943719182703127

>  <r_i_glide_emodel_strain>  (1) 
1.941388121400621

>  <r_i_glide_energy>  (1) 
-29.115779159740736

>  <r_i_glide_erotb>  (1) 
0.43215163049877869

>  <r_i_glide_esite>  (1) 
-0.17660862892047058

>  <r_i_glide_evdw>  (1) 
-23.0410938171085

>  <r_i_glide_gscore>  (1) 
-4.6167295521398879

>  <r_i_glide_gscore_strain>  (1) 
0

>  <r_i_glide_hbond>  (1) 
-0.45567526339296038

>  <r_i_glide_ligand_efficiency>  (1) 
-0.10710476072556062

>  <r_i_glide_ligand_efficiency_ln>  (1) 
-0.9672991261213193

>  <r_i_glide_ligand_efficiency_sa>  (1) 
-0.37523061098411331

>  <r_i_glide_lipo>  (1) 
-1.649215055601436

>  <r_i_glide_metal>  (1) 
-0

>  <r_i_glide_rewards>  (1) 
-0.70412474247353962

>  <r_lp_Energy>  (1) 
44.110861999999997

>  <r_lp_tautomer_probability>  (1) 
0.49997499999946832

>  <s_epik_Chemistry_Notes>  (1) 
This compound has an imine and may undergo hydrolysis.

>  <s_epik_cmdline>  (1) 
J2VwaWtfcHl0aG9uJywgJy1waHQnLCAnMS4wJywgJy1waCcsICc3LjQnLCAnLXRuJywgJzgnLCAnLW1hJywgJzUwMCcsICctaW1hZScsICc8aW5maWxlLm1hZT4nLCAnLW9tYWUnLCAnPG91dGZpbGUubWFlPic=

>  <s_epik_input>  (1) 
TzFbQ0gyXVtDSDJdTj1DMVtDQEhdKFtDSDJdW09IXSlDKD1PKU4oQyg9TylbQ0BIXTJGKVtDQEBIXShbQ0BASF0zW0NIM10pW0NIMl1bQ0BIXShbT0hdKVtDQEhdKFtDSDNdKVtDSDJdQyhcW0NIMl1bQ0BIXTIzKT1bQ0hdXFtDQEhdKFtDQEBIXTRPW0NIMl00KVtDSDJdW0NAQEhdKFtDQEBIXShGKVtPSF0pW0NIMl1DKD1PKVtOSF1bQ0gyXVtDSDNd

>  <s_glide_docking_method>  (1) 
confgen

>  <s_i_glide_gridfile>  (1) 
gpcr_drd2_6luq_protein_autoprepared_prepared

>  <s_lp_Force_Field>  (1) 
S-OPLS

>  <s_lp_Variant>  (1) 
DiffSBDD_66_num_sample_100-4

>  <s_m_source_file>  (1) 
generated__ligand_DiffSBDD_2026-05-06_prepared.sdf

>  <GenAI_Model>  (1) 
DiffSBDD

>  <Protein>  (1) 
generic_title2

$$$$
DiffSBDD_36_num_sample_100
     RDKit          3D

  0  0  0  0  0  0  0  0  0  0999 V3000
M  V30 BEGIN CTAB
M  V30 COUNTS 101 106 0 0 1
M  V30 BEGIN ATOM
M  V30 1 C 12.517977 -1.450773 -22.474113 0
M  V30 2 O 10.676180 4.236358 -19.988546 0
M  V30 3 C 15.589418 3.427541 -19.118268 0
M  V30 4 C 10.300217 8.289231 -9.934650 0
M  V30 5 C 7.263850 3.943330 -14.344866 0 CFG=1
M  V30 6 O 8.553694 4.969298 -9.726358 0
M  V30 7 C 12.263932 4.621911 -17.728686 0
M  V30 8 C 13.998677 1.263007 -20.246231 0
M  V30 9 C 13.497500 2.213475 -19.151869 0 CFG=1
M  V30 10 C 15.347677 1.558385 -20.815777 0 CFG=1
M  V30 11 C 8.755518 5.491829 -20.227085 0
M  V30 12 C 13.587313 2.713559 -16.808224 0
M  V30 13 C 15.914831 2.953241 -20.524992 0
M  V30 14 C 13.618817 -0.785087 -21.672763 0
M  V30 15 S 9.034837 3.572374 -12.291661 0
M  V30 16 C 14.908980 -1.234439 -21.842248 0
M  V30 17 C 6.676173 3.343900 -18.650845 0
M  V30 18 C 16.111011 -0.786265 -21.122005 0
M  V30 19 C 8.859275 6.393085 -11.673180 0
M  V30 20 C 9.304705 4.144354 -19.773328 0 CFG=2
M  V30 21 O 7.279230 6.421885 -14.356402 0
M  V30 22 C 4.799492 7.778602 -16.858124 0
M  V30 23 C 7.916470 2.914432 -13.453155 0
M  V30 24 C 9.834844 7.008738 -9.285088 0
M  V30 25 C 5.972587 6.699760 -14.834124 0
M  V30 26 C 13.629038 1.554417 -17.781060 0
M  V30 27 O 6.386711 3.020220 -20.016016 0
M  V30 28 C 4.074735 6.569262 -17.454458 0
M  V30 29 C 13.689615 4.001520 -17.645168 0 CFG=2
M  V30 30 C 14.652084 5.010530 -16.965723 0
M  V30 31 S 10.136632 6.639859 -7.683409 0
M  V30 32 O 9.021618 3.974093 -18.413947 0
M  V30 33 C 6.121222 7.469681 -16.150360 0
M  V30 34 C 7.998969 2.752950 -16.578054 0
M  V30 35 C 7.653265 1.598718 -13.508171 0
M  V30 36 N 14.136740 3.530699 -18.980167 0
M  V30 37 C 11.111440 5.596295 -19.881915 0 CFG=1
M  V30 38 C 7.371458 5.271295 -13.526540 0 CFG=2
M  V30 39 C 9.034851 6.005011 -10.181831 0
M  V30 40 O 5.759952 2.269395 -18.890132 0
M  V30 41 C 7.939196 4.049299 -15.741420 0
M  V30 42 O 12.654298 6.867873 -18.529109 0
M  V30 43 C 8.725399 5.290107 -12.772549 0 CFG=2
M  V30 44 C 16.296064 0.439302 -20.626505 0
M  V30 45 C 13.232972 0.245414 -20.681721 0
M  V30 46 C 8.047227 2.976875 -18.104944 0 CFG=1
M  V30 47 C 9.832435 6.435619 -19.737601 0
M  V30 48 C 12.071477 5.797746 -18.698931 0
M  V30 49 H 11.579649 -1.455245 -21.918150 0
M  V30 50 H 12.358099 -0.910876 -23.407167 0
M  V30 51 H 12.769855 -2.483507 -22.716688 0
M  V30 52 H 16.055373 4.402655 -18.980574 0
M  V30 53 H 16.005022 2.751002 -18.374548 0
M  V30 54 H 11.068942 8.088418 -10.680996 0
M  V30 55 H 9.449764 8.789904 -10.398563 0
M  V30 56 H 6.217092 3.675651 -14.477828 0
M  V30 57 H 11.982858 4.986757 -16.740498 0
M  V30 58 H 12.438398 2.390112 -19.343699 0
M  V30 59 H 15.190175 1.569354 -21.895699 0
M  V30 60 H 8.700774 5.498802 -21.316429 0
M  V30 61 H 7.766233 5.693787 -19.815871 0
M  V30 62 H 14.377683 2.621286 -16.062357 0
M  V30 63 H 12.634819 2.689218 -16.291660 0
M  V30 64 H 15.490618 3.667327 -21.232928 0
M  V30 65 H 16.991629 2.976028 -20.694328 0
M  V30 66 H 15.046866 -2.046155 -22.542157 0
M  V30 67 H 6.225831 4.266698 -18.294884 0
M  V30 68 H 16.909604 -1.502478 -20.992433 0
M  V30 69 H 9.698368 7.014058 -11.978504 0
M  V30 70 H 7.988597 7.047763 -11.721979 0
M  V30 71 H 8.929930 3.315107 -20.376405 0
M  V30 72 H 4.132770 8.314052 -16.182050 0
M  V30 73 H 5.034838 8.459118 -17.675941 0
M  V30 74 H 5.404528 5.785893 -15.005867 0
M  V30 75 H 5.434597 7.286135 -14.089189 0
M  V30 76 H 12.831681 0.833592 -17.596107 0
M  V30 77 H 14.577655 1.023530 -17.689038 0
M  V30 78 H 3.157379 6.883283 -17.951491 0
M  V30 79 H 4.693575 6.063344 -18.194129 0
M  V30 80 H 3.795876 5.845508 -16.691720 0
M  V30 81 H 14.224469 5.387505 -16.036046 0
M  V30 82 H 15.608659 4.559392 -16.702002 0
M  V30 83 H 14.860037 5.872118 -17.599703 0
M  V30 84 H 10.721360 8.969256 -9.192882 0
M  V30 85 H 6.634604 8.409054 -15.941888 0
M  V30 86 H 6.762105 6.918217 -16.837765 0
M  V30 87 H 8.873541 2.177045 -16.275685 0
M  V30 88 H 7.135449 2.125714 -16.355607 0
M  V30 89 H 6.948090 1.199655 -14.221906 0
M  V30 90 H 8.141170 0.905692 -12.837163 0
M  V30 91 H 11.629817 5.854972 -20.805325 0
M  V30 92 H 6.574437 5.294337 -12.779593 0
M  V30 93 H 7.394598 4.793743 -16.316806 0
M  V30 94 H 8.950492 4.445984 -15.641686 0
M  V30 95 H 11.538821 3.839609 -17.939199 0
M  V30 96 H 9.497223 5.497048 -13.514930 0
M  V30 97 H 17.216839 0.668602 -20.109747 0
M  V30 98 H 12.244288 0.162204 -20.254635 0
M  V30 99 H 8.350204 2.034114 -18.564213 0
M  V30 100 H 9.640577 6.699606 -18.695502 0
M  V30 101 H 9.871321 7.359512 -20.315181 0
M  V30 END ATOM
M  V30 BEGIN BOND
M  V30 1 1 9 8
M  V30 2 1 10 8
M  V30 3 1 13 3
M  V30 4 1 13 10
M  V30 5 1 14 1
M  V30 6 2 16 14
M  V30 7 1 18 16
M  V30 8 1 20 2
M  V30 9 1 20 11
M  V30 10 1 23 5
M  V30 11 1 23 15
M  V30 12 1 24 4
M  V30 13 1 25 21
M  V30 14 1 26 9
M  V30 15 1 26 12
M  V30 16 1 27 17
M  V30 17 1 28 22
M  V30 18 1 29 7 CFG=3
M  V30 19 1 29 12
M  V30 20 1 30 29
M  V30 21 2 31 24
M  V30 22 1 32 20
M  V30 23 1 33 22
M  V30 24 1 33 25
M  V30 25 2 35 23
M  V30 26 1 36 3
M  V30 27 1 36 9
M  V30 28 1 36 29
M  V30 29 1 37 2
M  V30 30 1 38 5
M  V30 31 1 38 21
M  V30 32 2 39 6
M  V30 33 1 39 19
M  V30 34 1 39 24
M  V30 35 1 40 17
M  V30 36 1 40 27
M  V30 37 1 41 5
M  V30 38 1 41 34
M  V30 39 1 43 15
M  V30 40 1 43 19
M  V30 41 1 43 38
M  V30 42 1 44 10
M  V30 43 2 44 18
M  V30 44 2 45 8
M  V30 45 1 45 14
M  V30 46 1 46 17
M  V30 47 1 46 32
M  V30 48 1 46 34
M  V30 49 1 47 11
M  V30 50 1 47 37
M  V30 51 1 48 7
M  V30 52 1 48 37
M  V30 53 2 48 42
M  V30 54 1 49 1
M  V30 55 1 50 1
M  V30 56 1 51 1
M  V30 57 1 52 3
M  V30 58 1 53 3
M  V30 59 1 54 4
M  V30 60 1 55 4
M  V30 61 1 5 56 CFG=3
M  V30 62 1 57 7
M  V30 63 1 9 58 CFG=3
M  V30 64 1 10 59 CFG=3
M  V30 65 1 60 11
M  V30 66 1 61 11
M  V30 67 1 62 12
M  V30 68 1 63 12
M  V30 69 1 64 13
M  V30 70 1 65 13
M  V30 71 1 66 16
M  V30 72 1 67 17
M  V30 73 1 68 18
M  V30 74 1 69 19
M  V30 75 1 70 19
M  V30 76 1 20 71 CFG=3
M  V30 77 1 72 22
M  V30 78 1 73 22
M  V30 79 1 74 25
M  V30 80 1 75 25
M  V30 81 1 76 26
M  V30 82 1 77 26
M  V30 83 1 78 28
M  V30 84 1 79 28
M  V30 85 1 80 28
M  V30 86 1 81 30
M  V30 87 1 82 30
M  V30 88 1 83 30
M  V30 89 1 84 4
M  V30 90 1 85 33
M  V30 91 1 86 33
M  V30 92 1 87 34
M  V30 93 1 88 34
M  V30 94 1 89 35
M  V30 95 1 90 35
M  V30 96 1 37 91 CFG=3
M  V30 97 1 38 92 CFG=1
M  V30 98 1 93 41
M  V30 99 1 94 41
M  V30 100 1 95 7
M  V30 101 1 43 96 CFG=3
M  V30 102 1 97 44
M  V30 103 1 98 45
M  V30 104 1 46 99 CFG=3
M  V30 105 1 100 47
M  V30 106 1 101 47
M  V30 END BOND
M  V30 END CTAB
M  END
>  <i_epik_Tot_Q>  (1) 
0

>  <i_epik_Tot_abs_Q>  (1) 
0

>  <i_i_glide_confnum>  (1) 
7535

>  <i_i_glide_lignum>  (1) 
64

>  <i_i_glide_posenum>  (1) 
85

>  <i_i_glide_rotatable_bonds>  (1) 
16

>  <i_lp_mmshare_version>  (1) 
72125

>  <i_m_source_file_index>  (1) 
37

>  <i_f3d_flags>  (1) 
0

>  <num_sample>  (1) 
100

>  <b_lp_Chiralities_Consistent>  (1) 
1

>  <r_epik_Charging_Adjusted_Penalty>  (1) 
0.36853766337093702

>  <r_epik_Ionization_Penalty>  (1) 
0.36853766343244521

>  <r_epik_Ionization_Penalty_Charging>  (1) 
0

>  <r_epik_Ionization_Penalty_Neutral>  (1) 
0.36853766343244521

>  <r_epik_State_Penalty>  (1) 
0.36853766337093702

>  <r_glide_ring_energy>  (1) 
0.90812249233528797

>  <r_i_docking_score>  (1) 
-4.6033564172056005

>  <r_i_glide_ecoul>  (1) 
0.74594785510038752

>  <r_i_glide_eff_state_penalty>  (1) 
0.36853766337093702

>  <r_i_glide_einternal>  (1) 
17.66539349930563

>  <r_i_glide_emodel>  (1) 
-47.58139219977312

>  <r_i_glide_emodel_strain>  (1) 
6.6695304666697268

>  <r_i_glide_energy>  (1) 
-48.501898006263914

>  <r_i_glide_erotb>  (1) 
0.43754787897849062

>  <r_i_glide_esite>  (1) 
-0.18108996163258939

>  <r_i_glide_evdw>  (1) 
-49.247845861364304

>  <r_i_glide_gscore>  (1) 
-4.9718940805765373

>  <r_i_glide_gscore_strain>  (1) 
0.66738261666743171

>  <r_i_glide_hbond>  (1) 
0

>  <r_i_glide_ligand_efficiency>  (1) 
-0.095903258691783344

>  <r_i_glide_ligand_efficiency_ln>  (1) 
-0.94501467028305419

>  <r_i_glide_ligand_efficiency_sa>  (1) 
-0.34853557257709483

>  <r_i_glide_lipo>  (1) 
-3.0605179210066518

>  <r_i_glide_metal>  (1) 
-0

>  <r_i_glide_rewards>  (1) 
-0.48471657878006125

>  <r_lp_Energy>  (1) 
26.071289

>  <r_lp_tautomer_probability>  (1) 
0.99994996000200076

>  <s_epik_Chemistry_Notes>  (1) 
This compound contains an acetal/aminal-like group ( X-CH(R)-Y where X, Y are N, S, or O) that may be acid/base labile, releasing an aldehyde.

>  <s_epik_cmdline>  (1) 
J2VwaWtfcHl0aG9uJywgJy1waHQnLCAnMS4wJywgJy1waCcsICc3LjQnLCAnLXRuJywgJzgnLCAnLW1hJywgJzUwMCcsICctaW1hZScsICc8aW5maWxlLm1hZT4nLCAnLW9tYWUnLCAnPG91dGZpbGUubWFlPic=

>  <s_epik_input>  (1) 
W0NIM11DKFtDSF0xKT1bQ0hdW0NIXT1bQ0hdW0NAQEhdMltDSDJdW0NIMl1OKFtDQEhdM0M9MTIpW0NAXShbQ0gzXSkoW0NIMl1bQ0gyXTMpL1tDSF09QyhbT0hdKS9bQ0BIXShbQ0gyXVtDSDJdNClPW0NASF00T1tDQEhdKFtDSF01T081KVtDSDJdW0NIMl1bQ0BIXTZDKD1bQ0gyXSlTW0NASF0oW0NIMl1DKD1PKUMoPVtDSDJdKVtTSF0pW0NASF02T1tDSDJdW0NIMl1bQ0gyXVtDSDNd

>  <s_glide_docking_method>  (1) 
confgen

>  <s_i_glide_gridfile>  (1) 
gpcr_drd2_6luq_protein_autoprepared_prepared

>  <s_lp_Force_Field>  (1) 
S-OPLS

>  <s_lp_Variant>  (1) 
DiffSBDD_36_num_sample_100-1

>  <s_m_source_file>  (1) 
generated__ligand_DiffSBDD_2026-05-06_prepared.sdf

>  <GenAI_Model>  (1) 
DiffSBDD

>  <Protein>  (1) 
generic_title2

$$$$
DiffSBDD_58_num_sample_100
     RDKit          3D

  0  0  0  0  0  0  0  0  0  0999 V3000
M  V30 BEGIN CTAB
M  V30 COUNTS 48 50 0 0 1
M  V30 BEGIN ATOM
M  V30 1 C 9.532274 6.843839 -10.227500 0
M  V30 2 C 8.634837 2.818285 -12.691666 0
M  V30 3 C 11.662129 8.786367 -7.161923 0
M  V30 4 C 8.073343 8.065405 -11.963439 0
M  V30 5 C 9.240989 7.093843 -11.719883 0 CFG=2
M  V30 6 C 11.078386 7.638909 -7.997176 0 CFG=1
M  V30 7 C 6.879821 1.366632 -13.554493 0
M  V30 8 C 10.151332 6.844589 -7.053414 0
M  V30 9 C 10.386896 7.405721 -5.643553 0 CFG=1
M  V30 10 N 6.482763 0.160189 -14.120575 0
M  V30 11 O 8.054369 5.010565 -11.853343 0
M  V30 12 C 8.985028 5.780579 -12.455257 0
M  V30 13 C 5.924540 2.358122 -13.271303 0
M  V30 14 O 9.579171 5.492817 -13.491735 0
M  V30 15 C 7.675082 3.816115 -12.412129 0
M  V30 16 O 12.506771 8.786638 -4.199801 0
M  V30 17 C 8.234842 1.595957 -13.264533 0
M  V30 18 S 10.234846 8.317617 -9.449534 0
M  V30 19 C 11.434717 9.565793 -4.713835 0
M  V30 20 C 12.100403 7.507131 -3.721665 0
M  V30 21 C 11.458783 6.650405 -4.837142 0
M  V30 22 C 6.320430 3.581508 -12.701228 0
M  V30 23 C 10.786555 8.853812 -5.913104 0 CFG=1
M  V30 24 H 8.634857 6.551360 -9.686258 0
M  V30 25 H 10.234814 6.022720 -10.109208 0
M  V30 26 H 9.676697 2.991349 -12.466291 0
M  V30 27 H 12.690864 8.569313 -6.895270 0
M  V30 28 H 11.686595 9.736848 -7.692931 0
M  V30 29 H 7.998888 8.336654 -13.016469 0
M  V30 30 H 7.119713 7.625224 -11.670835 0
M  V30 31 H 8.194851 8.986770 -11.396256 0
M  V30 32 H 10.138036 7.526236 -12.162509 0
M  V30 33 H 11.875559 6.993154 -8.355023 0
M  V30 34 H 9.106672 7.008327 -7.326391 0
M  V30 35 H 10.326221 5.769368 -7.108352 0
M  V30 36 H 9.456281 7.369015 -5.091711 0
M  V30 37 H 5.503027 -0.080582 -14.183625 0
M  V30 38 H 7.134755 -0.606839 -14.206081 0
M  V30 39 H 4.883442 2.181094 -13.491669 0
M  V30 40 H 8.970934 0.834716 -13.478077 0
M  V30 41 H 11.819407 10.536337 -5.028545 0
M  V30 42 H 10.705525 9.769454 -3.928933 0
M  V30 43 H 12.978574 6.993473 -3.330848 0
M  V30 44 H 11.434845 7.628509 -2.870302 0
M  V30 45 H 12.226961 6.268984 -5.509272 0
M  V30 46 H 11.007133 5.769274 -4.386584 0
M  V30 47 H 5.583351 4.340517 -12.485463 0
M  V30 48 H 9.870328 9.369308 -6.190055 0
M  V30 END ATOM
M  V30 BEGIN BOND
M  V30 1 1 5 1
M  V30 2 1 5 4
M  V30 3 1 6 3
M  V30 4 1 8 6
M  V30 5 1 9 8
M  V30 6 1 10 7
M  V30 7 1 12 5
M  V30 8 1 12 11
M  V30 9 1 13 7
M  V30 10 2 14 12
M  V30 11 2 15 2
M  V30 12 1 15 11
M  V30 13 1 17 2
M  V30 14 2 17 7
M  V30 15 1 18 1
M  V30 16 1 18 6
M  V30 17 1 19 16
M  V30 18 1 20 16
M  V30 19 1 21 9
M  V30 20 1 21 20
M  V30 21 2 22 13
M  V30 22 1 22 15
M  V30 23 1 23 3
M  V30 24 1 23 9
M  V30 25 1 23 19
M  V30 26 1 24 1
M  V30 27 1 25 1
M  V30 28 1 26 2
M  V30 29 1 27 3
M  V30 30 1 28 3
M  V30 31 1 29 4
M  V30 32 1 30 4
M  V30 33 1 31 4
M  V30 34 1 5 32 CFG=3
M  V30 35 1 6 33 CFG=3
M  V30 36 1 34 8
M  V30 37 1 35 8
M  V30 38 1 9 36 CFG=1
M  V30 39 1 37 10
M  V30 40 1 38 10
M  V30 41 1 39 13
M  V30 42 1 40 17
M  V30 43 1 41 19
M  V30 44 1 42 19
M  V30 45 1 43 20
M  V30 46 1 44 20
M  V30 47 1 45 21
M  V30 48 1 46 21
M  V30 49 1 47 22
M  V30 50 1 23 48 CFG=3
M  V30 END BOND
M  V30 END CTAB
M  END
>  <i_epik_Tot_Q>  (1) 
0

>  <i_epik_Tot_abs_Q>  (1) 
0

>  <i_i_glide_confnum>  (1) 
13

>  <i_i_glide_lignum>  (1) 
116

>  <i_i_glide_posenum>  (1) 
305

>  <i_i_glide_rotatable_bonds>  (1) 
6

>  <i_lp_mmshare_version>  (1) 
72125

>  <i_m_source_file_index>  (1) 
59

>  <i_f3d_flags>  (1) 
0

>  <num_sample>  (1) 
100

>  <b_lp_Chiralities_Consistent>  (1) 
1

>  <r_epik_Charging_Adjusted_Penalty>  (1) 
0.0033808002230057204

>  <r_epik_Ionization_Penalty>  (1) 
0.0033808103155764289

>  <r_epik_Ionization_Penalty_Charging>  (1) 
0

>  <r_epik_Ionization_Penalty_Neutral>  (1) 
0.0033808103155764289

>  <r_epik_State_Penalty>  (1) 
0.0033808002230057204

>  <r_glide_ring_energy>  (1) 
0

>  <r_i_docking_score>  (1) 
-4.601171634786386

>  <r_i_glide_ecoul>  (1) 
-0.46994036312364806

>  <r_i_glide_eff_state_penalty>  (1) 
0.0033808002230057204

>  <r_i_glide_einternal>  (1) 
1.2398340987771537

>  <r_i_glide_emodel>  (1) 
-40.095846232064538

>  <r_i_glide_emodel_strain>  (1) 
0.53462994785656548

>  <r_i_glide_energy>  (1) 
-30.903775434158728

>  <r_i_glide_erotb>  (1) 
0.83854581213583013

>  <r_i_glide_esite>  (1) 
-0.0023578421122871177

>  <r_i_glide_evdw>  (1) 
-30.43383507103508

>  <r_i_glide_gscore>  (1) 
-4.604552435009392

>  <r_i_glide_gscore_strain>  (1) 
0

>  <r_i_glide_hbond>  (1) 
0

>  <r_i_glide_ligand_efficiency>  (1) 
-0.20005094064288634

>  <r_i_glide_ligand_efficiency_ln>  (1) 
-1.1126050224090591

>  <r_i_glide_ligand_efficiency_sa>  (1) 
-0.56891826438255

>  <r_i_glide_lipo>  (1) 
-2.7754051555738419

>  <r_i_glide_metal>  (1) 
-0

>  <r_i_glide_rewards>  (1) 
-1.0731524414387932

>  <r_lp_Energy>  (1) 
27.491351999999999

>  <s_epik_cmdline>  (1) 
J2VwaWtfcHl0aG9uJywgJy1waHQnLCAnMS4wJywgJy1waCcsICc3LjQnLCAnLXRuJywgJzgnLCAnLW1hJywgJzUwMCcsICctaW1hZScsICc8aW5maWxlLm1hZT4nLCAnLW9tYWUnLCAnPG91dGZpbGUubWFlPic=

>  <s_epik_input>  (1) 
W0NIMl0xW0NIMl1PW0NIMl1bQ0BIXShbQ0BIXTEyKVtDSDJdW0NAQEhdKFtDSDJdMilTW0NIMl1bQ0BIXShbQ0gzXSlDKD1PKU9jKFtjSF1bY0hdMylbY0hdW2NIXWMzW05IMl0=

>  <s_glide_docking_method>  (1) 
confgen

>  <s_i_glide_gridfile>  (1) 
gpcr_drd2_6luq_protein_autoprepared_prepared

>  <s_lp_Force_Field>  (1) 
S-OPLS

>  <s_lp_Variant>  (1) 
DiffSBDD_58_num_sample_100-1

>  <s_m_source_file>  (1) 
generated__ligand_DiffSBDD_2026-05-06_prepared.sdf

>  <GenAI_Model>  (1) 
DiffSBDD

>  <Protein>  (1) 
generic_title2

$$$$
DiffSBDD_44_num_sample_100
     RDKit          3D

  0  0  0  0  0  0  0  0  0  0999 V3000
M  V30 BEGIN CTAB
M  V30 COUNTS 55 57 0 0 1
M  V30 BEGIN ATOM
M  V30 1 C 8.294292 0.331199 -13.734789 0
M  V30 2 C 7.262137 1.200828 -14.496203 0 CFG=1
M  V30 3 C 10.846652 6.372261 -6.502273 0
M  V30 4 C 11.243439 8.866756 -5.262085 0
M  V30 5 C 10.780383 8.811561 -6.580868 0
M  V30 6 C 9.479953 4.560163 -12.039551 0
M  V30 7 C 7.457207 0.999400 -15.988510 0
M  V30 8 N 5.881896 0.709384 -14.346147 0
M  V30 9 C 9.843976 6.044454 -11.882708 0
M  V30 10 C 9.702128 6.454047 -9.293049 0
M  V30 11 O 9.754365 5.299179 -8.882535 0
M  V30 12 C 11.506157 7.685526 -4.558676 0
M  V30 13 N 11.434818 10.098180 -4.650297 0
M  V30 14 C 6.322872 0.305402 -16.686221 0
M  V30 15 N 10.059490 7.549105 -8.599919 0
M  V30 16 C 7.996620 4.326406 -12.364131 0
M  V30 17 O 7.034838 3.580522 -14.903331 0
M  V30 18 C 9.434823 8.300161 -10.731165 0
M  V30 19 C 5.555724 -0.205128 -15.452727 0
M  V30 20 N 7.816612 2.969277 -12.867400 0
M  V30 21 C 5.432702 0.248889 -13.040885 0
M  V30 22 C 9.187256 6.767972 -10.690094 0 CFG=1
M  V30 23 C 9.861612 8.786339 -9.317917 0
M  V30 24 C 10.566210 7.565204 -7.219860 0
M  V30 25 C 7.362122 2.699948 -14.104174 0
M  V30 26 C 11.313168 6.444379 -5.175495 0
M  V30 27 O 8.473188 1.363949 -16.582471 0
M  V30 28 H 9.258897 0.826300 -13.673724 0
M  V30 29 H 8.016803 0.165368 -12.695696 0
M  V30 30 H 8.450633 -0.630691 -14.227779 0
M  V30 31 H 10.713053 5.409800 -6.945299 0
M  V30 32 H 10.584768 9.723136 -7.091658 0
M  V30 33 H 10.079397 4.158939 -12.854502 0
M  V30 34 H 9.765918 3.992446 -11.154503 0
M  V30 35 H 9.539519 6.556298 -12.795598 0
M  V30 36 H 10.926365 6.169289 -11.854638 0
M  V30 37 H 11.862257 7.730365 -3.540026 0
M  V30 38 H 11.622667 10.156691 -3.659689 0
M  V30 39 H 11.106844 10.945371 -5.091707 0
M  V30 40 H 5.742601 1.028919 -17.258759 0
M  V30 41 H 6.662584 -0.499823 -17.337103 0
M  V30 42 H 7.392578 4.444641 -11.464192 0
M  V30 43 H 7.644557 5.081219 -13.068782 0
M  V30 44 H 10.226802 8.529673 -11.442402 0
M  V30 45 H 8.545952 8.829558 -11.077538 0
M  V30 46 H 4.479321 -0.230829 -15.627056 0
M  V30 47 H 5.869209 -1.219934 -15.210210 0
M  V30 48 H 8.069452 2.203194 -12.259539 0
M  V30 49 H 4.376256 -0.012502 -13.091650 0
M  V30 50 H 5.970423 -0.633770 -12.709940 0
M  V30 51 H 5.570508 1.019016 -12.285894 0
M  V30 52 H 8.117638 6.569299 -10.691672 0
M  V30 53 H 9.062792 9.363969 -8.852264 0
M  V30 54 H 10.780929 9.369561 -9.362627 0
M  V30 55 H 11.522451 5.538973 -4.630042 0
M  V30 END ATOM
M  V30 BEGIN BOND
M  V30 1 1 2 1 CFG=1
M  V30 2 2 5 4
M  V30 3 1 7 2
M  V30 4 1 8 2
M  V30 5 1 9 6
M  V30 6 2 11 10
M  V30 7 1 12 4
M  V30 8 1 13 4
M  V30 9 1 14 7
M  V30 10 1 15 10
M  V30 11 1 16 6
M  V30 12 1 19 8
M  V30 13 1 19 14
M  V30 14 1 20 16
M  V30 15 1 21 8
M  V30 16 1 22 9
M  V30 17 1 22 10
M  V30 18 1 22 18
M  V30 19 1 23 15
M  V30 20 1 23 18
M  V30 21 2 24 3
M  V30 22 1 24 5
M  V30 23 1 24 15
M  V30 24 1 25 2
M  V30 25 2 25 17
M  V30 26 1 25 20
M  V30 27 1 26 3
M  V30 28 2 26 12
M  V30 29 2 27 7
M  V30 30 1 28 1
M  V30 31 1 29 1
M  V30 32 1 30 1
M  V30 33 1 31 3
M  V30 34 1 32 5
M  V30 35 1 33 6
M  V30 36 1 34 6
M  V30 37 1 35 9
M  V30 38 1 36 9
M  V30 39 1 37 12
M  V30 40 1 38 13
M  V30 41 1 39 13
M  V30 42 1 40 14
M  V30 43 1 41 14
M  V30 44 1 42 16
M  V30 45 1 43 16
M  V30 46 1 44 18
M  V30 47 1 45 18
M  V30 48 1 46 19
M  V30 49 1 47 19
M  V30 50 1 48 20
M  V30 51 1 49 21
M  V30 52 1 50 21
M  V30 53 1 51 21
M  V30 54 1 22 52 CFG=1
M  V30 55 1 53 23
M  V30 56 1 54 23
M  V30 57 1 55 26
M  V30 END BOND
M  V30 END CTAB
M  END
>  <i_epik_Tot_Q>  (1) 
0

>  <i_epik_Tot_abs_Q>  (1) 
0

>  <i_i_glide_confnum>  (1) 
357

>  <i_i_glide_lignum>  (1) 
76

>  <i_i_glide_posenum>  (1) 
393

>  <i_i_glide_rotatable_bonds>  (1) 
7

>  <i_lp_mmshare_version>  (1) 
72125

>  <i_m_source_file_index>  (1) 
45

>  <i_f3d_flags>  (1) 
0

>  <num_sample>  (1) 
100

>  <b_lp_Chiralities_Consistent>  (1) 
1

>  <r_epik_Charging_Adjusted_Penalty>  (1) 
0.38370982414574223

>  <r_epik_Ionization_Penalty>  (1) 
0.3841777034394574

>  <r_epik_Ionization_Penalty_Charging>  (1) 
0

>  <r_epik_Ionization_Penalty_Neutral>  (1) 
0.3841777034394574

>  <r_epik_State_Penalty>  (1) 
0.38370982414574223

>  <r_glide_ring_energy>  (1) 
0

>  <r_i_docking_score>  (1) 
-4.591029176839732

>  <r_i_glide_ecoul>  (1) 
-2.5467583372359646

>  <r_i_glide_eff_state_penalty>  (1) 
0.38370982414574223

>  <r_i_glide_einternal>  (1) 
9.1149460354653691

>  <r_i_glide_emodel>  (1) 
-40.778758878175282

>  <r_i_glide_emodel_strain>  (1) 
0.12527449982893302

>  <r_i_glide_energy>  (1) 
-34.516543852601046

>  <r_i_glide_erotb>  (1) 
0.97453214498294238

>  <r_i_glide_esite>  (1) 
-0.16223465700137851

>  <r_i_glide_evdw>  (1) 
-31.969785515365082

>  <r_i_glide_gscore>  (1) 
-4.9747390009854744

>  <r_i_glide_gscore_strain>  (1) 
0

>  <r_i_glide_hbond>  (1) 
0

>  <r_i_glide_ligand_efficiency>  (1) 
-0.17003811766073082

>  <r_i_glide_ligand_efficiency_ln>  (1) 
-1.0687159033368903

>  <r_i_glide_ligand_efficiency_sa>  (1) 
-0.51011435298219254

>  <r_i_glide_lipo>  (1) 
-2.0045663016912552

>  <r_i_glide_metal>  (1) 
-0

>  <r_i_glide_rewards>  (1) 
-1.8019671609221337

>  <r_lp_Energy>  (1) 
22.834814999999999

>  <r_lp_tautomer_probability>  (1) 
0.99995000000000001

>  <s_epik_cmdline>  (1) 
J2VwaWtfcHl0aG9uJywgJy1waHQnLCAnMS4wJywgJy1waCcsICc3LjQnLCAnLXRuJywgJzgnLCAnLW1hJywgJzUwMCcsICctaW1hZScsICc8aW5maWxlLm1hZT4nLCAnLW9tYWUnLCAnPG91dGZpbGUubWFlPic=

>  <s_epik_input>  (1) 
W0NIM11OMVtDSDJdW0NIMl1DKD1PKVtDQEBdMShbQ0gzXSlDKD1PKVtOSF1bQ0gyXVtDSDJdW0NIMl1bQ0BASF0yW0NIMl1bQ0gyXU4oQzI9TyljKFtjSF1bY0hdW2NIXTMpW2NIXWMzW05IMl0=

>  <s_glide_docking_method>  (1) 
confgen

>  <s_i_glide_gridfile>  (1) 
gpcr_drd2_6luq_protein_autoprepared_prepared

>  <s_lp_Force_Field>  (1) 
S-OPLS

>  <s_lp_Variant>  (1) 
DiffSBDD_44_num_sample_100-1

>  <s_m_source_file>  (1) 
generated__ligand_DiffSBDD_2026-05-06_prepared.sdf

>  <GenAI_Model>  (1) 
DiffSBDD

>  <Protein>  (1) 
generic_title2

$$$$
DiffSBDD_61_num_sample_100
     RDKit          3D

  0  0  0  0  0  0  0  0  0  0999 V3000
M  V30 BEGIN CTAB
M  V30 COUNTS 52 54 0 0 1
M  V30 BEGIN ATOM
M  V30 1 N 11.236336 8.332590 -6.013117 0 CFG=2 CHG=1
M  V30 2 C 7.121822 2.908585 -14.098983 0
M  V30 3 C 7.484103 4.322814 -13.576183 0 CFG=1
M  V30 4 O 12.370516 7.108273 -2.726388 0
M  V30 5 C 12.634729 8.479661 -2.636617 0
M  V30 6 O 8.777609 4.704742 -14.024671 0
M  V30 7 C 9.435504 5.948380 -10.020047 0
M  V30 8 O 5.434945 6.569307 -15.911885 0
M  V30 9 C 10.628340 6.773837 -9.491654 0
M  V30 10 C 7.405009 5.886507 -11.605863 0 CFG=1
M  V30 11 C 10.107174 7.451379 -6.351090 0
M  V30 12 C 6.438087 5.358540 -14.047218 0 CFG=2
M  V30 13 C 6.533027 5.760402 -15.534425 0
M  V30 14 C 9.395183 7.997758 -7.587761 0
M  V30 15 C 7.491928 4.407971 -12.033922 0
M  V30 16 C 10.314959 8.118199 -8.819108 0 CFG=1
M  V30 17 O 6.437345 2.178073 -13.347783 0 CHG=-1
M  V30 18 C 12.234747 8.334610 -7.112050 0
M  V30 19 C 8.757454 6.546411 -11.263969 0
M  V30 20 C 11.625533 8.835738 -8.434952 0
M  V30 21 C 11.834624 6.921710 -3.979099 0
M  V30 22 C 11.780589 8.113796 -4.613560 0
M  V30 23 C 12.279400 9.123189 -3.795259 0
M  V30 24 S 6.592499 6.794199 -12.949816 0
M  V30 25 O 7.532416 2.599532 -15.240721 0
M  V30 26 H 13.063996 8.806308 -1.699886 0
M  V30 27 H 8.960012 5.564448 -13.682084 0
M  V30 28 H 8.696673 5.779335 -9.239006 0
M  V30 29 H 9.805420 4.954380 -10.271333 0
M  V30 30 H 5.536610 6.806453 -16.820789 0
M  V30 31 H 11.167360 6.169300 -8.768520 0
M  V30 32 H 11.312351 6.969301 -10.319714 0
M  V30 33 H 6.757275 5.954995 -10.730834 0
M  V30 34 H 10.452509 6.430045 -6.519839 0
M  V30 35 H 9.429075 7.411852 -5.503862 0
M  V30 36 H 5.445841 4.940922 -13.864013 0
M  V30 37 H 6.561718 4.882149 -16.177693 0
M  V30 38 H 7.452367 6.313356 -15.719972 0
M  V30 39 H 8.950366 8.967974 -7.362358 0
M  V30 40 H 8.572834 7.333517 -7.804582 0
M  V30 41 H 8.348974 3.888117 -11.607168 0
M  V30 42 H 6.610466 3.910859 -11.625908 0
M  V30 43 H 9.801061 8.733807 -9.558077 0
M  V30 44 H 12.616323 7.325152 -7.266908 0
M  V30 45 H 13.079654 8.969627 -6.842603 0
M  V30 46 H 9.440655 6.500586 -12.111328 0
M  V30 47 H 8.572651 7.606086 -11.091791 0
M  V30 48 H 12.362148 8.749900 -9.235138 0
M  V30 49 H 11.434863 9.892981 -8.358789 0
M  V30 50 H 11.556047 5.907965 -4.231716 0
M  V30 51 H 12.370492 10.169298 -4.005044 0
M  V30 52 H 10.837375 9.259572 -6.035514 0
M  V30 END ATOM
M  V30 BEGIN BOND
M  V30 1 1 3 2
M  V30 2 1 5 4
M  V30 3 1 3 6 CFG=3
M  V30 4 1 9 7
M  V30 5 1 11 1
M  V30 6 1 12 3
M  V30 7 1 13 8
M  V30 8 1 13 12
M  V30 9 1 14 11
M  V30 10 1 15 3
M  V30 11 1 15 10
M  V30 12 1 16 9
M  V30 13 1 16 14
M  V30 14 1 17 2
M  V30 15 1 18 1
M  V30 16 1 19 7
M  V30 17 1 19 10
M  V30 18 1 20 16
M  V30 19 1 20 18
M  V30 20 1 21 4
M  V30 21 1 22 1
M  V30 22 2 22 21
M  V30 23 2 23 5
M  V30 24 1 23 22
M  V30 25 1 24 10
M  V30 26 1 24 12
M  V30 27 2 25 2
M  V30 28 1 26 5
M  V30 29 1 27 6
M  V30 30 1 28 7
M  V30 31 1 29 7
M  V30 32 1 30 8
M  V30 33 1 31 9
M  V30 34 1 32 9
M  V30 35 1 10 33 CFG=1
M  V30 36 1 34 11
M  V30 37 1 35 11
M  V30 38 1 12 36 CFG=3
M  V30 39 1 37 13
M  V30 40 1 38 13
M  V30 41 1 39 14
M  V30 42 1 40 14
M  V30 43 1 41 15
M  V30 44 1 42 15
M  V30 45 1 16 43 CFG=3
M  V30 46 1 44 18
M  V30 47 1 45 18
M  V30 48 1 46 19
M  V30 49 1 47 19
M  V30 50 1 48 20
M  V30 51 1 49 20
M  V30 52 1 50 21
M  V30 53 1 51 23
M  V30 54 1 1 52 CFG=1
M  V30 END BOND
M  V30 END CTAB
M  END
>  <i_epik_Tot_Q>  (1) 
0

>  <i_epik_Tot_abs_Q>  (1) 
2

>  <i_i_glide_confnum>  (1) 
290

>  <i_i_glide_lignum>  (1) 
122

>  <i_i_glide_posenum>  (1) 
306

>  <i_i_glide_rotatable_bonds>  (1) 
9

>  <i_lp_mmshare_version>  (1) 
72125

>  <i_m_source_file_index>  (1) 
62

>  <i_f3d_flags>  (1) 
0

>  <num_sample>  (1) 
100

>  <b_lp_Chiralities_Consistent>  (1) 
1

>  <r_epik_Charging_Adjusted_Penalty>  (1) 
0.30587031255842323

>  <r_epik_Ionization_Penalty>  (1) 
0.15296771237530521

>  <r_epik_Ionization_Penalty_Charging>  (1) 
0.15296734445016963

>  <r_epik_Ionization_Penalty_Neutral>  (1) 
3.6792513557102453e-07

>  <r_epik_State_Penalty>  (1) 
0.15290296810825357

>  <r_glide_ring_energy>  (1) 
0

>  <r_i_docking_score>  (1) 
-4.5748169219982682

>  <r_i_glide_ecoul>  (1) 
-0.22729423798569559

>  <r_i_glide_eff_state_penalty>  (1) 
0.15290296810825357

>  <r_i_glide_einternal>  (1) 
2.6571944002853414

>  <r_i_glide_emodel>  (1) 
-38.059295663468994

>  <r_i_glide_emodel_strain>  (1) 
0.31164026104287501

>  <r_i_glide_energy>  (1) 
-30.988714371712117

>  <r_i_glide_erotb>  (1) 
0.84742595842419921

>  <r_i_glide_esite>  (1) 
0

>  <r_i_glide_evdw>  (1) 
-30.761420133726421

>  <r_i_glide_gscore>  (1) 
-4.7277198901065214

>  <r_i_glide_gscore_strain>  (1) 
0

>  <r_i_glide_hbond>  (1) 
0

>  <r_i_glide_ligand_efficiency>  (1) 
-0.18299267687993073

>  <r_i_glide_ligand_efficiency_ln>  (1) 
-1.0843687067137575

>  <r_i_glide_ligand_efficiency_sa>  (1) 
-0.53507383315997292

>  <r_i_glide_lipo>  (1) 
-2.00995900294477

>  <r_i_glide_metal>  (1) 
-0

>  <r_i_glide_rewards>  (1) 
-1.9930217032017745

>  <r_lp_Energy>  (1) 
19.922726999999998

>  <s_epik_cmdline>  (1) 
J2VwaWtfcHl0aG9uJywgJy1waHQnLCAnMS4wJywgJy1waCcsICc3LjQnLCAnLXRuJywgJzgnLCAnLW1hJywgJzUwMCcsICctaW1hZScsICc8aW5maWxlLm1hZT4nLCAnLW9tYWUnLCAnPG91dGZpbGUubWFlPic=

>  <s_epik_input>  (1) 
W2NIXTFbY0hdb1tjSF1jMU4yW0NIMl1bQ0gyXVtDSF0oW0NIMl1bQ0gyXTIpW0NIMl1bQ0gyXVtDSDJdW0NASF0oW0NIMl0zKVNbQ0BASF0oW0NIMl1bT0hdKVtDQF0zKFtPSF0pQyg9TylbT0hd

>  <s_glide_docking_method>  (1) 
confgen

>  <s_i_glide_gridfile>  (1) 
gpcr_drd2_6luq_protein_autoprepared_prepared

>  <s_lp_Force_Field>  (1) 
S-OPLS

>  <s_lp_Variant>  (1) 
DiffSBDD_61_num_sample_100-2

>  <s_m_source_file>  (1) 
generated__ligand_DiffSBDD_2026-05-06_prepared.sdf

>  <GenAI_Model>  (1) 
DiffSBDD

>  <Protein>  (1) 
generic_title2

$$$$
DiffSBDD_79_num_sample_100
     RDKit          3D

  0  0  0  0  0  0  0  0  0  0999 V3000
M  V30 BEGIN CTAB
M  V30 COUNTS 54 57 0 0 1
M  V30 BEGIN ATOM
M  V30 1 C 7.749136 0.951810 -15.314115 0
M  V30 2 C 7.285167 3.054866 -13.954740 0
M  V30 3 O 7.772463 4.886495 -17.133303 0
M  V30 4 C 11.037785 6.376677 -6.168270 0
M  V30 5 C 10.827464 7.317088 -7.076152 0
M  V30 6 C 7.281560 4.803526 -15.985593 0
M  V30 7 C 7.621291 5.205268 -10.107531 0
M  V30 8 C 9.834877 5.915983 -9.126720 0 CFG=1
M  V30 9 C 10.949956 6.569291 -4.712457 0
M  V30 10 C 8.479226 5.370754 -8.802774 0
M  V30 11 S 7.492785 1.390327 -13.537442 0
M  V30 12 C 11.834537 8.882475 -4.447207 0
M  V30 13 C 10.603532 8.717309 -6.713405 0
M  V30 14 F 12.568686 9.762255 -3.751409 0
M  V30 15 C 9.811095 7.362472 -9.518166 0 CFG=1
M  V30 16 C 11.834817 7.558510 -4.036664 0
M  V30 17 C 10.829610 6.931858 -8.515640 0 CFG=1
M  V30 18 C 5.872921 6.044746 -12.566324 0
M  V30 19 O 6.645383 5.679810 -15.374198 0 CHG=-1
M  V30 20 C 7.853909 2.253517 -16.187051 0
M  V30 21 C 11.034950 9.386597 -5.594313 0
M  V30 22 C 7.461210 3.378925 -15.258461 0
M  V30 23 C 8.692525 7.072278 -11.726356 0
M  V30 24 N 6.965380 3.858639 -12.842918 0
M  V30 25 O 12.432032 6.988271 -3.091710 0 CHG=-1
M  V30 26 C 7.215265 5.285124 -12.689067 0 CFG=2
M  V30 27 C 9.971631 7.522402 -10.997901 0
M  V30 28 C 8.207578 5.592114 -11.525505 0 CFG=2
M  V30 29 H 6.891592 0.362769 -15.642398 0
M  V30 30 H 8.633303 0.323582 -15.425108 0
M  V30 31 H 11.211465 5.369326 -6.499914 0
M  V30 32 H 7.289867 4.169373 -10.147562 0
M  V30 33 H 6.705843 5.769218 -9.945903 0
M  V30 34 H 10.234839 5.231149 -9.849397 0
M  V30 35 H 9.909921 6.818231 -4.538726 0
M  V30 36 H 11.049313 5.577350 -4.275470 0
M  V30 37 H 8.596206 4.415647 -8.291989 0
M  V30 38 H 7.986624 6.032060 -8.091876 0
M  V30 39 H 10.086525 9.313972 -7.445424 0
M  V30 40 H 9.034938 7.995563 -9.100499 0
M  V30 41 H 11.838697 6.966888 -8.910219 0
M  V30 42 H 6.012647 7.124552 -12.571768 0
M  V30 43 H 5.203192 5.808288 -13.391664 0
M  V30 44 H 5.332841 5.782285 -11.657886 0
M  V30 45 H 7.197339 2.208847 -17.056844 0
M  V30 46 H 8.875158 2.410581 -16.536121 0
M  V30 47 H 10.809944 10.442423 -5.572553 0
M  V30 48 H 8.892647 7.248401 -12.781987 0
M  V30 49 H 7.884330 7.762347 -11.491657 0
M  V30 50 H 7.794198 5.615222 -13.536971 0
M  V30 51 H 10.836967 6.959634 -11.348238 0
M  V30 52 H 10.172732 8.569256 -11.208824 0
M  V30 53 H 9.071331 4.950777 -11.704354 0
M  V30 54 H 6.838491 3.370904 -11.969415 0
M  V30 END ATOM
M  V30 BEGIN BOND
M  V30 1 2 5 4
M  V30 2 2 6 3
M  V30 3 1 9 4
M  V30 4 1 10 7
M  V30 5 1 10 8
M  V30 6 1 11 1
M  V30 7 1 11 2
M  V30 8 1 13 5
M  V30 9 1 14 12
M  V30 10 1 15 8
M  V30 11 1 16 9
M  V30 12 2 16 12
M  V30 13 1 17 5
M  V30 14 1 17 8
M  V30 15 1 17 15
M  V30 16 1 19 6
M  V30 17 1 20 1
M  V30 18 1 21 12
M  V30 19 2 21 13
M  V30 20 2 22 2
M  V30 21 1 22 6
M  V30 22 1 22 20
M  V30 23 1 24 2
M  V30 24 1 25 16
M  V30 25 1 26 18
M  V30 26 1 26 24
M  V30 27 1 27 15
M  V30 28 1 27 23
M  V30 29 1 28 7
M  V30 30 1 28 23
M  V30 31 1 28 26
M  V30 32 1 29 1
M  V30 33 1 30 1
M  V30 34 1 31 4
M  V30 35 1 32 7
M  V30 36 1 33 7
M  V30 37 1 8 34 CFG=3
M  V30 38 1 35 9
M  V30 39 1 36 9
M  V30 40 1 37 10
M  V30 41 1 38 10
M  V30 42 1 39 13
M  V30 43 1 15 40 CFG=1
M  V30 44 1 17 41 CFG=3
M  V30 45 1 42 18
M  V30 46 1 43 18
M  V30 47 1 44 18
M  V30 48 1 45 20
M  V30 49 1 46 20
M  V30 50 1 47 21
M  V30 51 1 48 23
M  V30 52 1 49 23
M  V30 53 1 26 50 CFG=3
M  V30 54 1 51 27
M  V30 55 1 52 27
M  V30 56 1 28 53 CFG=3
M  V30 57 1 54 24
M  V30 END BOND
M  V30 END CTAB
M  END
>  <i_epik_Tot_Q>  (1) 
-2

>  <i_epik_Tot_abs_Q>  (1) 
2

>  <i_i_glide_confnum>  (1) 
68

>  <i_i_glide_lignum>  (1) 
161

>  <i_i_glide_posenum>  (1) 
318

>  <i_i_glide_rotatable_bonds>  (1) 
5

>  <i_lp_mmshare_version>  (1) 
72125

>  <i_m_source_file_index>  (1) 
80

>  <i_f3d_flags>  (1) 
0

>  <num_sample>  (1) 
100

>  <b_lp_Chiralities_Consistent>  (1) 
1

>  <r_epik_Charging_Adjusted_Penalty>  (1) 
2.1010309465817274

>  <r_epik_Ionization_Penalty>  (1) 
1.0507665500608381

>  <r_epik_Ionization_Penalty_Charging>  (1) 
1.0507624105285871

>  <r_epik_Ionization_Penalty_Neutral>  (1) 
4.1395322510490374e-06

>  <r_epik_State_Penalty>  (1) 
1.0502685360531403

>  <r_glide_ring_energy>  (1) 
0

>  <r_i_docking_score>  (1) 
-4.5635570056185086

>  <r_i_glide_ecoul>  (1) 
-0.19056118735653954

>  <r_i_glide_eff_state_penalty>  (1) 
1.0502685360531403

>  <r_i_glide_einternal>  (1) 
9.0344796421946274

>  <r_i_glide_emodel>  (1) 
-33.46191701593407

>  <r_i_glide_emodel_strain>  (1) 
2.5517946789646828

>  <r_i_glide_energy>  (1) 
-33.180196244849796

>  <r_i_glide_erotb>  (1) 
0.48233039889226492

>  <r_i_glide_esite>  (1) 
0

>  <r_i_glide_evdw>  (1) 
-32.98963505749326

>  <r_i_glide_gscore>  (1) 
-5.6138255416716492

>  <r_i_glide_gscore_strain>  (1) 
0

>  <r_i_glide_hbond>  (1) 
0

>  <r_i_glide_ligand_efficiency>  (1) 
-0.16298417877208959

>  <r_i_glide_ligand_efficiency_ln>  (1) 
-1.0534029487527468

>  <r_i_glide_ligand_efficiency_sa>  (1) 
-0.49491595984953879

>  <r_i_glide_lipo>  (1) 
-2.3236380109011838

>  <r_i_glide_metal>  (1) 
-0

>  <r_i_glide_rewards>  (1) 
-2.0944519986845864

>  <r_lp_Energy>  (1) 
50.630325999999997

>  <s_epik_cmdline>  (1) 
J2VwaWtfcHl0aG9uJywgJy1waHQnLCAnMS4wJywgJy1waCcsICc3LjQnLCAnLXRuJywgJzgnLCAnLW1hJywgJzUwMCcsICctaW1hZScsICc8aW5maWxlLm1hZT4nLCAnLW9tYWUnLCAnPG91dGZpbGUubWFlPic=

>  <s_epik_input>  (1) 
Tz1DKFtPSF0pW0NASF0xW0NIMl1bQ0gyXVMvQzE9Ti9bQ0BASF0oW0NIM10pW0NASF0oW0NIMl1bQ0gyXTIpW0NIMl1bQ0gyXVtDQEBIXShbQ0BIXTIzKVtDQEhdM0M0PVtDSF1bQ0gyXUMoW09IXSk9QyhGKVtDSF09W0NIXTQ=

>  <s_glide_docking_method>  (1) 
confgen

>  <s_i_glide_gridfile>  (1) 
gpcr_drd2_6luq_protein_autoprepared_prepared

>  <s_lp_Force_Field>  (1) 
S-OPLS

>  <s_lp_Variant>  (1) 
DiffSBDD_79_num_sample_100-2

>  <s_m_source_file>  (1) 
generated__ligand_DiffSBDD_2026-05-06_prepared.sdf

>  <GenAI_Model>  (1) 
DiffSBDD

>  <Protein>  (1) 
generic_title2

$$$$
DiffSBDD_76_num_sample_100
     RDKit          3D

  0  0  0  0  0  0  0  0  0  0999 V3000
M  V30 BEGIN CTAB
M  V30 COUNTS 78 81 0 0 1
M  V30 BEGIN ATOM
M  V30 1 C 7.785276 3.237113 -13.013727 0
M  V30 2 C 7.156337 2.932335 -18.105571 0
M  V30 3 C 8.380939 5.962075 -11.747702 0
M  V30 4 N 8.697059 4.230926 -13.605682 0 CFG=2 CHG=1
M  V30 5 C 6.970846 3.230791 -19.488256 0
M  V30 6 C 12.420198 7.793179 -2.685676 0
M  V30 7 C 12.151304 6.569046 -3.151943 0
M  V30 8 C 11.889548 7.482230 -7.009659 0 CFG=1
M  V30 9 C 7.530619 2.382166 -15.396033 0
M  V30 10 N 9.992566 7.880180 -8.698782 0 CFG=2 CHG=1
M  V30 11 C 8.838546 8.287971 -7.890562 0
M  V30 12 C 7.728942 3.707067 -15.843308 0
M  V30 13 C 11.636256 6.296439 -4.567637 0
M  V30 14 C 7.690062 5.310533 -17.708056 0
M  V30 15 C 7.156966 1.405891 -16.331509 0
M  V30 16 C 10.241767 5.618896 -7.491879 0
M  V30 17 C 7.723205 2.010721 -13.932073 0
M  V30 18 C 9.651511 7.599022 -10.130994 0
M  V30 19 N 6.983130 1.665404 -17.636998 0
M  V30 20 O 9.434347 8.969297 -6.870777 0
M  V30 21 O 7.020635 6.144661 -21.827014 0
M  V30 22 C 11.433758 7.562350 -5.464119 0 CFG=1
M  V30 23 C 7.152656 4.578663 -19.973133 0
M  V30 24 C 8.993931 6.223372 -10.361188 0
M  V30 25 N 13.363162 8.569164 -8.794161 0 CHG=1
M  V30 26 C 10.898892 6.886929 -8.049411 0 CFG=2
M  V30 27 O 6.609971 2.214590 -20.334056 0 CHG=-1
M  V30 28 C 9.343424 5.175564 -12.664615 0
M  V30 29 C 7.527641 3.996203 -17.222010 0
M  V30 30 C 8.155315 4.805738 -14.857164 0
M  V30 31 C 12.599822 8.769404 -7.542622 0
M  V30 32 C 12.234622 8.965837 -3.497563 0
M  V30 33 C 11.786803 8.887591 -4.759814 0
M  V30 34 C 6.982918 4.974710 -21.442978 0
M  V30 35 C 7.501587 5.596059 -19.064280 0
M  V30 36 C 6.781070 3.859349 -22.470943 0
M  V30 37 H 8.153771 2.969229 -12.025764 0
M  V30 38 H 6.788429 3.665113 -12.893212 0
M  V30 39 H 7.472803 5.387077 -11.569760 0
M  V30 40 H 8.040567 6.882755 -12.223712 0
M  V30 41 H 12.781483 7.902962 -1.672203 0
M  V30 42 H 12.298503 5.709286 -2.514893 0
M  V30 43 H 12.634935 6.699936 -7.063678 0
M  V30 44 H 8.263536 7.452374 -7.492008 0
M  V30 45 H 8.234987 9.068565 -8.346263 0
M  V30 46 H 10.677169 5.789539 -4.428976 0
M  V30 47 H 12.234727 5.553643 -5.077945 0
M  V30 48 H 7.957991 6.109144 -17.037888 0
M  V30 49 H 6.997031 0.383043 -16.020874 0
M  V30 50 H 11.061243 4.969296 -7.197475 0
M  V30 51 H 9.629272 5.812502 -6.614860 0
M  V30 52 H 9.628218 5.037152 -8.167720 0
M  V30 53 H 6.909395 1.356210 -13.616748 0
M  V30 54 H 8.634741 1.420129 -13.845673 0
M  V30 55 H 9.006842 8.396249 -10.499128 0
M  V30 56 H 10.555925 7.661755 -10.734414 0
M  V30 57 H 8.819052 8.985864 -6.150977 0
M  V30 58 H 10.355977 7.567727 -5.403429 0
M  V30 59 H 9.721853 5.440387 -10.169211 0
M  V30 60 H 8.208763 6.085608 -9.622359 0
M  V30 61 H 13.794342 9.449729 -9.085949 0
M  V30 62 H 14.100323 7.899294 -8.628099 0
M  V30 63 H 11.520726 6.566730 -8.880225 0
M  V30 64 H 10.005005 5.854352 -13.202311 0
M  V30 65 H 10.009927 4.547132 -12.072758 0
M  V30 66 H 7.311354 5.462026 -14.642669 0
M  V30 67 H 8.951719 5.403921 -15.300888 0
M  V30 68 H 11.874835 9.571159 -7.691470 0
M  V30 69 H 13.326706 9.141799 -6.821876 0
M  V30 70 H 12.454222 9.934867 -3.076052 0
M  V30 71 H 11.645408 9.794143 -5.328811 0
M  V30 72 H 7.632586 6.608364 -19.417396 0
M  V30 73 H 7.598571 3.139697 -22.411236 0
M  V30 74 H 5.827534 3.349438 -22.330911 0
M  V30 75 H 6.792277 4.278222 -23.477473 0
M  V30 76 H 12.772462 8.246021 -9.543912 0
M  V30 77 H 9.485579 3.670681 -13.891675 0
M  V30 78 H 10.515902 8.738260 -8.755641 0
M  V30 END ATOM
M  V30 BEGIN BOND
M  V30 1 1 4 1
M  V30 2 2 5 2
M  V30 3 2 7 6
M  V30 4 1 11 10
M  V30 5 2 12 9
M  V30 6 1 13 7
M  V30 7 1 15 9
M  V30 8 1 17 1
M  V30 9 1 17 9
M  V30 10 1 18 10
M  V30 11 1 19 2
M  V30 12 2 19 15
M  V30 13 1 20 11
M  V30 14 1 22 8
M  V30 15 1 22 13
M  V30 16 1 23 5
M  V30 17 1 24 3
M  V30 18 1 24 18
M  V30 19 1 26 8
M  V30 20 1 26 10
M  V30 21 1 26 16
M  V30 22 1 27 5
M  V30 23 1 28 3
M  V30 24 1 28 4
M  V30 25 1 29 2
M  V30 26 1 29 12
M  V30 27 2 29 14
M  V30 28 1 30 4
M  V30 29 1 30 12
M  V30 30 1 31 8
M  V30 31 1 31 25
M  V30 32 1 32 6
M  V30 33 1 33 22
M  V30 34 2 33 32
M  V30 35 2 34 21
M  V30 36 1 34 23
M  V30 37 1 35 14
M  V30 38 2 35 23
M  V30 39 1 36 34
M  V30 40 1 37 1
M  V30 41 1 38 1
M  V30 42 1 39 3
M  V30 43 1 40 3
M  V30 44 1 41 6
M  V30 45 1 42 7
M  V30 46 1 8 43 CFG=1
M  V30 47 1 44 11
M  V30 48 1 45 11
M  V30 49 1 46 13
M  V30 50 1 47 13
M  V30 51 1 48 14
M  V30 52 1 49 15
M  V30 53 1 50 16
M  V30 54 1 51 16
M  V30 55 1 52 16
M  V30 56 1 53 17
M  V30 57 1 54 17
M  V30 58 1 55 18
M  V30 59 1 56 18
M  V30 60 1 57 20
M  V30 61 1 22 58 CFG=3
M  V30 62 1 59 24
M  V30 63 1 60 24
M  V30 64 1 61 25
M  V30 65 1 62 25
M  V30 66 1 26 63 CFG=3
M  V30 67 1 64 28
M  V30 68 1 65 28
M  V30 69 1 66 30
M  V30 70 1 67 30
M  V30 71 1 68 31
M  V30 72 1 69 31
M  V30 73 1 70 32
M  V30 74 1 71 33
M  V30 75 1 72 35
M  V30 76 1 73 36
M  V30 77 1 74 36
M  V30 78 1 75 36
M  V30 79 1 76 25
M  V30 80 1 4 77 CFG=3
M  V30 81 1 10 78 CFG=3
M  V30 END BOND
M  V30 END CTAB
M  END
>  <i_epik_Tot_Q>  (1) 
2

>  <i_epik_Tot_abs_Q>  (1) 
4

>  <i_i_glide_confnum>  (1) 
1389

>  <i_i_glide_lignum>  (1) 
157

>  <i_i_glide_posenum>  (1) 
16

>  <i_i_glide_rotatable_bonds>  (1) 
12

>  <i_lp_mmshare_version>  (1) 
72125

>  <i_m_source_file_index>  (1) 
77

>  <i_f3d_flags>  (1) 
0

>  <num_sample>  (1) 
100

>  <b_lp_Chiralities_Consistent>  (1) 
1

>  <r_epik_Charging_Adjusted_Penalty>  (1) 
2.7385366295040585

>  <r_epik_Ionization_Penalty>  (1) 
1.4403839023663505

>  <r_epik_Ionization_Penalty_Charging>  (1) 
1.4088334024277234

>  <r_epik_Ionization_Penalty_Neutral>  (1) 
0.03155049993862722

>  <r_epik_State_Penalty>  (1) 
1.3297032270763354

>  <r_glide_ring_energy>  (1) 
0.68305203791256774

>  <r_i_docking_score>  (1) 
-4.5597882746301899

>  <r_i_glide_ecoul>  (1) 
-7.3583728092835097

>  <r_i_glide_eff_state_penalty>  (1) 
1.3297032270763354

>  <r_i_glide_einternal>  (1) 
35.211395616617914

>  <r_i_glide_emodel>  (1) 
-27.983948632388309

>  <r_i_glide_emodel_strain>  (1) 
3.7300823309692674

>  <r_i_glide_energy>  (1) 
-30.087440134544956

>  <r_i_glide_erotb>  (1) 
0.66625950385389887

>  <r_i_glide_esite>  (1) 
-0.16721787509941111

>  <r_i_glide_evdw>  (1) 
-22.729067325261447

>  <r_i_glide_gscore>  (1) 
-5.8894915017065248

>  <r_i_glide_gscore_strain>  (1) 
0

>  <r_i_glide_hbond>  (1) 
0

>  <r_i_glide_ligand_efficiency>  (1) 
-0.12666078540639417

>  <r_i_glide_ligand_efficiency_ln>  (1) 
-0.99482261028162933

>  <r_i_glide_ligand_efficiency_sa>  (1) 
-0.41822469869976786

>  <r_i_glide_lipo>  (1) 
-3.2088316089183606

>  <r_i_glide_metal>  (1) 
-0

>  <r_i_glide_rewards>  (1) 
-0.93949223388705294

>  <r_lp_Energy>  (1) 
78.881341999999989

>  <r_lp_tautomer_probability>  (1) 
0.99995000000000001

>  <s_epik_Chemistry_Notes>  (1) 
This compound contains an acetal/aminal-like group ( X-CH(R)-Y where X, Y are N, S, or O) that may be acid/base labile, releasing an aldehyde.

>  <s_epik_cmdline>  (1) 
J2VwaWtfcHl0aG9uJywgJy1waHQnLCAnMS4wJywgJy1waCcsICc3LjQnLCAnLXRuJywgJzgnLCAnLW1hJywgJzUwMCcsICctaW1hZScsICc8aW5maWxlLm1hZT4nLCAnLW9tYWUnLCAnPG91dGZpbGUubWFlPic=

>  <s_epik_input>  (1) 
Tz1DKFtDSDNdKWMoYzFbT0hdKVtjSF1bY0hdYyhjMTIpYzNjKFtjSF1uMilbQ0gyXVtDSDJdTihbQ0gyXTMpW0NIMl1bQ0gyXVtDSDJdW0NIMl1OKFtDSDJdW09IXSlbQ0BIXShbQ0gzXSlbQ0BASF0oW0NIMl1bTkgyXSlbQ0BIXTRbQ0gyXVtDSF09W0NIXVtDSF09W0NIXTQ=

>  <s_glide_docking_method>  (1) 
confgen

>  <s_i_glide_gridfile>  (1) 
gpcr_drd2_6luq_protein_autoprepared_prepared

>  <s_lp_Force_Field>  (1) 
S-OPLS

>  <s_lp_Variant>  (1) 
DiffSBDD_76_num_sample_100-6

>  <s_m_source_file>  (1) 
generated__ligand_DiffSBDD_2026-05-06_prepared.sdf

>  <GenAI_Model>  (1) 
DiffSBDD

>  <Protein>  (1) 
generic_title2

$$$$
DiffSBDD_94_num_sample_100
     RDKit          3D

  0  0  0  0  0  0  0  0  0  0999 V3000
M  V30 BEGIN CTAB
M  V30 COUNTS 55 56 0 0 1
M  V30 BEGIN ATOM
M  V30 1 C 6.544839 7.660237 -14.959770 0
M  V30 2 C 5.470339 5.395552 -15.465259 0
M  V30 3 C 5.756157 6.382490 -17.863683 0 CFG=1
M  V30 4 N 7.976893 5.864619 -19.024282 0
M  V30 5 C 8.964109 6.280625 -20.021334 0
M  V30 6 S 8.068162 5.345807 -14.523080 0
M  V30 7 F 4.919338 5.752082 -18.673993 0
M  V30 8 C 10.510320 7.195323 -7.732369 0
M  V30 9 C 6.725505 6.211995 -15.405481 0 CFG=2
M  V30 10 C 9.782419 6.946129 -10.165280 0 CFG=1
M  V30 11 C 7.002428 4.328189 -17.351548 0
M  V30 12 C 10.429677 6.620293 -6.313810 0
M  V30 13 C 8.360089 2.669729 -12.573913 0
M  V30 14 C 11.653757 8.650104 -5.402888 0
M  V30 15 C 8.928438 6.220042 -11.109538 0
M  V30 16 C 7.317117 5.030143 -12.892672 0 CFG=1
M  V30 17 O 9.433950 8.304972 -10.168295 0
M  V30 18 C 7.084912 3.527614 -12.616138 0
M  V30 19 C 8.077475 4.668803 -18.398056 0
M  V30 20 C 6.279575 5.535291 -16.724901 0 CFG=1
M  V30 21 C 8.180608 5.671270 -11.896226 0
M  V30 22 O 8.978271 3.864310 -18.637609 0
M  V30 23 C 6.945058 6.843200 -18.674658 0
M  V30 24 C 11.106544 7.429566 -5.220939 0
M  V30 25 C 9.654803 6.407360 -8.732004 0
M  V30 26 H 5.615256 8.091292 -15.337552 0
M  V30 27 H 6.494570 7.716388 -13.871447 0
M  V30 28 H 7.377157 8.286556 -15.263942 0
M  V30 29 H 5.490295 4.495321 -14.866892 0
M  V30 30 H 4.521946 5.916031 -15.493511 0
M  V30 31 H 5.189885 7.232625 -17.477430 0
M  V30 32 H 8.914318 5.671959 -20.923769 0
M  V30 33 H 8.815592 7.318998 -20.319173 0
M  V30 34 H 9.973181 6.212273 -19.612937 0
M  V30 35 H 11.546650 7.201763 -8.070718 0
M  V30 36 H 10.164615 8.228869 -7.725603 0
M  V30 37 H 10.806446 6.857237 -10.520962 0
M  V30 38 H 7.410822 3.671242 -16.585082 0
M  V30 39 H 6.270172 3.735296 -17.906846 0
M  V30 40 H 9.386241 6.475379 -6.026957 0
M  V30 41 H 10.897151 5.639465 -6.322922 0
M  V30 42 H 8.125487 1.616155 -12.419959 0
M  V30 43 H 8.925267 2.744750 -13.492693 0
M  V30 44 H 9.030901 2.976493 -11.772879 0
M  V30 45 H 12.120326 9.171253 -4.582530 0
M  V30 46 H 11.639570 9.130935 -6.367024 0
M  V30 47 H 6.356361 5.544730 -12.828048 0
M  V30 48 H 8.506987 8.329033 -9.891639 0
M  V30 49 H 6.564481 3.423450 -11.662898 0
M  V30 50 H 6.404659 3.110038 -13.355741 0
M  V30 51 H 7.458958 7.370166 -17.905818 0
M  V30 52 H 6.663630 7.504584 -19.496336 0
M  V30 53 H 11.139878 6.978926 -4.241946 0
M  V30 54 H 8.614269 6.455107 -8.411617 0
M  V30 55 H 9.928981 5.351892 -8.705068 0
M  V30 END ATOM
M  V30 BEGIN BOND
M  V30 1 1 5 4
M  V30 2 1 7 3
M  V30 3 1 9 1
M  V30 4 1 9 2
M  V30 5 1 9 6 CFG=1
M  V30 6 1 12 8
M  V30 7 1 15 10
M  V30 8 1 16 6
M  V30 9 1 17 10
M  V30 10 1 18 13
M  V30 11 1 18 16
M  V30 12 1 19 4
M  V30 13 1 19 11
M  V30 14 1 20 2 CFG=1
M  V30 15 1 20 3
M  V30 16 1 20 9
M  V30 17 1 20 11
M  V30 18 3 21 15
M  V30 19 1 21 16
M  V30 20 2 22 19
M  V30 21 1 23 3
M  V30 22 1 23 4
M  V30 23 1 24 12
M  V30 24 2 24 14
M  V30 25 1 25 8
M  V30 26 1 25 10
M  V30 27 1 26 1
M  V30 28 1 27 1
M  V30 29 1 28 1
M  V30 30 1 29 2
M  V30 31 1 30 2
M  V30 32 1 3 31 CFG=1
M  V30 33 1 32 5
M  V30 34 1 33 5
M  V30 35 1 34 5
M  V30 36 1 35 8
M  V30 37 1 36 8
M  V30 38 1 10 37 CFG=3
M  V30 39 1 38 11
M  V30 40 1 39 11
M  V30 41 1 40 12
M  V30 42 1 41 12
M  V30 43 1 42 13
M  V30 44 1 43 13
M  V30 45 1 44 13
M  V30 46 1 45 14
M  V30 47 1 46 14
M  V30 48 1 16 47 CFG=3
M  V30 49 1 48 17
M  V30 50 1 49 18
M  V30 51 1 50 18
M  V30 52 1 51 23
M  V30 53 1 52 23
M  V30 54 1 53 24
M  V30 55 1 54 25
M  V30 56 1 55 25
M  V30 END BOND
M  V30 END CTAB
M  END
>  <i_epik_Tot_Q>  (1) 
0

>  <i_epik_Tot_abs_Q>  (1) 
0

>  <i_i_glide_confnum>  (1) 
138

>  <i_i_glide_lignum>  (1) 
189

>  <i_i_glide_posenum>  (1) 
166

>  <i_i_glide_rotatable_bonds>  (1) 
10

>  <i_lp_mmshare_version>  (1) 
72125

>  <i_m_source_file_index>  (1) 
95

>  <i_f3d_flags>  (1) 
0

>  <num_sample>  (1) 
100

>  <b_lp_Chiralities_Consistent>  (1) 
1

>  <r_epik_Charging_Adjusted_Penalty>  (1) 
0

>  <r_epik_Ionization_Penalty>  (1) 
2.8843446265645777e-07

>  <r_epik_Ionization_Penalty_Charging>  (1) 
0

>  <r_epik_Ionization_Penalty_Neutral>  (1) 
2.8843446265645777e-07

>  <r_epik_State_Penalty>  (1) 
-0

>  <r_glide_ring_energy>  (1) 
0

>  <r_i_docking_score>  (1) 
-4.5484228503859656

>  <r_i_glide_ecoul>  (1) 
-5.6775366303243837

>  <r_i_glide_eff_state_penalty>  (1) 
-0

>  <r_i_glide_einternal>  (1) 
4.7422446053088816

>  <r_i_glide_emodel>  (1) 
-27.145845665126728

>  <r_i_glide_emodel_strain>  (1) 
0.87357129774915876

>  <r_i_glide_energy>  (1) 
-22.167582827278544

>  <r_i_glide_erotb>  (1) 
1.1406536467652393

>  <r_i_glide_esite>  (1) 
0

>  <r_i_glide_evdw>  (1) 
-16.490046196954161

>  <r_i_glide_gscore>  (1) 
-4.5484228503859656

>  <r_i_glide_gscore_strain>  (1) 
0

>  <r_i_glide_hbond>  (1) 
-0.16

>  <r_i_glide_ligand_efficiency>  (1) 
-0.18193691401543863

>  <r_i_glide_ligand_efficiency_ln>  (1) 
-1.0781125207751427

>  <r_i_glide_ligand_efficiency_sa>  (1) 
-0.53198676381685162

>  <r_i_glide_lipo>  (1) 
-2.03264924211221

>  <r_i_glide_metal>  (1) 
-0

>  <r_i_glide_rewards>  (1) 
-1.8202944506426291

>  <r_lp_Energy>  (1) 
17.436699000000001

>  <r_lp_tautomer_probability>  (1) 
1

>  <s_epik_cmdline>  (1) 
J2VwaWtfcHl0aG9uJywgJy1waHQnLCAnMS4wJywgJy1waCcsICc3LjQnLCAnLXRuJywgJzgnLCAnLW1hJywgJzUwMCcsICctaW1hZScsICc8aW5maWxlLm1hZT4nLCAnLW9tYWUnLCAnPG91dGZpbGUubWFlPic=

>  <s_epik_input>  (1) 
W0NIMl0xQyg9TylOKFtDSDNdKVtDSDJdW0NAQEhdKEYpW0NAQF0xMltDSDJdW0NAQF0yKFtDSDNdKVNbQ0BASF0oW0NIMl1bQ0gzXSlDI0NbQ0BASF0oW09IXSlbQ0gyXVtDSDJdW0NIMl1bQ0hdPVtDSDJd

>  <s_glide_docking_method>  (1) 
confgen

>  <s_i_glide_gridfile>  (1) 
gpcr_drd2_6luq_protein_autoprepared_prepared

>  <s_lp_Force_Field>  (1) 
S-OPLS

>  <s_lp_Variant>  (1) 
DiffSBDD_94_num_sample_100-1

>  <s_m_source_file>  (1) 
generated__ligand_DiffSBDD_2026-05-06_prepared.sdf

>  <GenAI_Model>  (1) 
DiffSBDD

>  <Protein>  (1) 
generic_title2

$$$$
DiffSBDD_76_num_sample_100
     RDKit          3D

  0  0  0  0  0  0  0  0  0  0999 V3000
M  V30 BEGIN CTAB
M  V30 COUNTS 78 81 0 0 1
M  V30 BEGIN ATOM
M  V30 1 C 5.871243 7.264497 -12.520164 0
M  V30 2 C 7.241787 4.029428 -16.256913 0
M  V30 3 C 9.186689 7.654238 -11.113680 0
M  V30 4 N 7.058841 6.562990 -12.007712 0 CFG=2 CHG=1
M  V30 5 C 7.554133 2.859961 -17.000204 0
M  V30 6 C 12.544815 7.712477 -2.013919 0
M  V30 7 C 12.309455 6.583566 -2.689532 0
M  V30 8 C 11.671121 8.119518 -6.148483 0 CFG=1
M  V30 9 C 6.472901 6.241214 -14.780096 0
M  V30 10 N 10.849801 7.575964 -8.589804 0 CFG=1 CHG=1
M  V30 11 C 12.256271 7.698500 -9.055959 0
M  V30 12 C 6.925002 5.116508 -14.078052 0
M  V30 13 C 11.620301 6.543769 -4.046958 0
M  V30 14 C 7.599863 2.752173 -14.172721 0
M  V30 15 C 6.474141 6.221055 -16.176742 0
M  V30 16 C 9.260795 8.651896 -7.044425 0
M  V30 17 C 5.994817 7.453641 -14.047875 0
M  V30 18 C 10.144111 6.395090 -9.138908 0
M  V30 19 N 6.904531 5.180195 -16.894677 0
M  V30 20 O 12.232624 9.022633 -9.523874 0
M  V30 21 O 8.328059 0.324359 -18.341020 0
M  V30 22 C 11.274993 7.941309 -4.658553 0 CFG=1
M  V30 23 C 7.858447 1.633593 -16.332476 0
M  V30 24 C 10.005130 6.459847 -10.663987 0
M  V30 25 N 11.834885 10.628271 -6.291591 0 CHG=1
M  V30 26 C 10.514340 7.783883 -7.141362 0 CFG=2
M  V30 27 O 7.532630 2.919120 -18.371583 0 CHG=-1
M  V30 28 C 8.305391 7.341933 -12.314604 0
M  V30 29 C 7.268770 3.958274 -14.823679 0
M  V30 30 C 7.019260 5.154994 -12.535790 0
M  V30 31 C 12.581448 9.370859 -6.353484 0
M  V30 32 C 12.151291 8.990304 -2.520029 0
M  V30 33 C 11.567685 9.124986 -3.714900 0
M  V30 34 C 8.162514 0.368611 -17.119423 0
M  V30 35 C 7.873977 1.596198 -14.917910 0
M  V30 36 C 8.245996 -0.909587 -16.307209 0
M  V30 37 H 5.008417 6.651020 -12.285067 0
M  V30 38 H 5.723607 8.199481 -11.977008 0
M  V30 39 H 8.634784 8.101484 -10.299534 0
M  V30 40 H 9.879058 8.446572 -11.395917 0
M  V30 41 H 13.035111 7.657522 -1.059223 0
M  V30 42 H 12.616665 5.637101 -2.271232 0
M  V30 43 H 12.234818 7.230803 -6.382142 0
M  V30 44 H 12.499186 7.052973 -9.893355 0
M  V30 45 H 13.026009 7.522052 -8.311662 0
M  V30 46 H 10.698063 5.974997 -3.923513 0
M  V30 47 H 12.235100 5.940010 -4.713482 0
M  V30 48 H 7.614537 2.699586 -13.096171 0
M  V30 49 H 6.135564 7.082942 -16.734742 0
M  V30 50 H 8.666953 8.461281 -6.152315 0
M  V30 51 H 9.474114 9.704791 -7.091728 0
M  V30 52 H 8.626685 8.451148 -7.894007 0
M  V30 53 H 6.762215 8.169265 -14.305032 0
M  V30 54 H 5.050549 7.794928 -14.476251 0
M  V30 55 H 10.633783 5.484172 -8.802300 0
M  V30 56 H 9.134123 6.342806 -8.723623 0
M  V30 57 H 13.074581 9.250859 -9.903249 0
M  V30 58 H 10.210276 7.923752 -4.691815 0
M  V30 59 H 10.951527 6.568885 -11.187585 0
M  V30 60 H 9.568869 5.515936 -10.993502 0
M  V30 61 H 12.473473 11.410454 -6.267998 0
M  V30 62 H 11.245012 10.717216 -7.105924 0
M  V30 63 H 10.178405 6.808188 -6.785299 0
M  V30 64 H 8.059382 8.337177 -12.687375 0
M  V30 65 H 8.890700 6.859017 -13.093083 0
M  V30 66 H 7.920758 4.647583 -12.198732 0
M  V30 67 H 6.166663 4.619054 -12.112754 0
M  V30 68 H 13.351092 9.407249 -5.579953 0
M  V30 69 H 13.168586 9.334665 -7.258921 0
M  V30 70 H 12.308792 9.865412 -1.910927 0
M  V30 71 H 11.257976 10.101546 -4.035095 0
M  V30 72 H 8.104262 0.678254 -14.398141 0
M  V30 73 H 9.034711 -0.877956 -15.568332 0
M  V30 74 H 7.288584 -1.031149 -15.807791 0
M  V30 75 H 8.406409 -1.769703 -16.956983 0
M  V30 76 H 11.258477 10.648746 -5.465071 0
M  V30 77 H 6.968022 6.551810 -10.992958 0
M  V30 78 H 10.406941 8.354420 -9.054907 0
M  V30 END ATOM
M  V30 BEGIN BOND
M  V30 1 1 4 1
M  V30 2 2 5 2
M  V30 3 2 7 6
M  V30 4 1 11 10
M  V30 5 2 12 9
M  V30 6 1 13 7
M  V30 7 1 15 9
M  V30 8 1 17 1
M  V30 9 1 17 9
M  V30 10 1 18 10
M  V30 11 1 19 2
M  V30 12 2 19 15
M  V30 13 1 20 11
M  V30 14 1 22 8
M  V30 15 1 22 13
M  V30 16 1 23 5
M  V30 17 1 24 3
M  V30 18 1 24 18
M  V30 19 1 26 8
M  V30 20 1 26 10
M  V30 21 1 26 16
M  V30 22 1 27 5
M  V30 23 1 28 3
M  V30 24 1 28 4
M  V30 25 1 29 2
M  V30 26 1 29 12
M  V30 27 2 29 14
M  V30 28 1 30 4
M  V30 29 1 30 12
M  V30 30 1 31 8
M  V30 31 1 31 25
M  V30 32 1 32 6
M  V30 33 1 33 22
M  V30 34 2 33 32
M  V30 35 2 34 21
M  V30 36 1 34 23
M  V30 37 1 35 14
M  V30 38 2 35 23
M  V30 39 1 36 34
M  V30 40 1 37 1
M  V30 41 1 38 1
M  V30 42 1 39 3
M  V30 43 1 40 3
M  V30 44 1 41 6
M  V30 45 1 42 7
M  V30 46 1 8 43 CFG=3
M  V30 47 1 44 11
M  V30 48 1 45 11
M  V30 49 1 46 13
M  V30 50 1 47 13
M  V30 51 1 48 14
M  V30 52 1 49 15
M  V30 53 1 50 16
M  V30 54 1 51 16
M  V30 55 1 52 16
M  V30 56 1 53 17
M  V30 57 1 54 17
M  V30 58 1 55 18
M  V30 59 1 56 18
M  V30 60 1 57 20
M  V30 61 1 22 58 CFG=3
M  V30 62 1 59 24
M  V30 63 1 60 24
M  V30 64 1 61 25
M  V30 65 1 62 25
M  V30 66 1 26 63 CFG=1
M  V30 67 1 64 28
M  V30 68 1 65 28
M  V30 69 1 66 30
M  V30 70 1 67 30
M  V30 71 1 68 31
M  V30 72 1 69 31
M  V30 73 1 70 32
M  V30 74 1 71 33
M  V30 75 1 72 35
M  V30 76 1 73 36
M  V30 77 1 74 36
M  V30 78 1 75 36
M  V30 79 1 76 25
M  V30 80 1 4 77 CFG=1
M  V30 81 1 10 78 CFG=3
M  V30 END BOND
M  V30 END CTAB
M  END
>  <i_epik_Tot_Q>  (1) 
2

>  <i_epik_Tot_abs_Q>  (1) 
4

>  <i_i_glide_confnum>  (1) 
1613

>  <i_i_glide_lignum>  (1) 
155

>  <i_i_glide_posenum>  (1) 
3

>  <i_i_glide_rotatable_bonds>  (1) 
12

>  <i_lp_mmshare_version>  (1) 
72125

>  <i_m_source_file_index>  (1) 
77

>  <i_f3d_flags>  (1) 
0

>  <num_sample>  (1) 
100

>  <b_lp_Chiralities_Consistent>  (1) 
1

>  <r_epik_Charging_Adjusted_Penalty>  (1) 
2.7385366295040585

>  <r_epik_Ionization_Penalty>  (1) 
1.4403839023663505

>  <r_epik_Ionization_Penalty_Charging>  (1) 
1.4088334024277234

>  <r_epik_Ionization_Penalty_Neutral>  (1) 
0.03155049993862722

>  <r_epik_State_Penalty>  (1) 
1.3297032270763354

>  <r_glide_ring_energy>  (1) 
0.68305203791256597

>  <r_i_docking_score>  (1) 
-4.5469796787918781

>  <r_i_glide_ecoul>  (1) 
-4.7928562953945928

>  <r_i_glide_eff_state_penalty>  (1) 
1.3297032270763354

>  <r_i_glide_einternal>  (1) 
37.225732601533892

>  <r_i_glide_emodel>  (1) 
-22.920960918503233

>  <r_i_glide_emodel_strain>  (1) 
4.4115147057323298

>  <r_i_glide_energy>  (1) 
-27.40944539145304

>  <r_i_glide_erotb>  (1) 
0.66625950385389887

>  <r_i_glide_esite>  (1) 
-0.092339007231620612

>  <r_i_glide_evdw>  (1) 
-22.616589096058448

>  <r_i_glide_gscore>  (1) 
-5.876682905868214

>  <r_i_glide_gscore_strain>  (1) 
0.10287867643308246

>  <r_i_glide_hbond>  (1) 
-0.33604029524247825

>  <r_i_glide_ligand_efficiency>  (1) 
-0.12630499107755216

>  <r_i_glide_ligand_efficiency_ln>  (1) 
-0.99202812071797841

>  <r_i_glide_ligand_efficiency_sa>  (1) 
-0.41704989171036227

>  <r_i_glide_lipo>  (1) 
-3.0300545213730747

>  <r_i_glide_metal>  (1) 
-0

>  <r_i_glide_rewards>  (1) 
-1.33762936319591

>  <r_lp_Energy>  (1) 
77.906815999999992

>  <r_lp_tautomer_probability>  (1) 
0.99995000000000001

>  <s_epik_Chemistry_Notes>  (1) 
This compound contains an acetal/aminal-like group ( X-CH(R)-Y where X, Y are N, S, or O) that may be acid/base labile, releasing an aldehyde.

>  <s_epik_cmdline>  (1) 
J2VwaWtfcHl0aG9uJywgJy1waHQnLCAnMS4wJywgJy1waCcsICc3LjQnLCAnLXRuJywgJzgnLCAnLW1hJywgJzUwMCcsICctaW1hZScsICc8aW5maWxlLm1hZT4nLCAnLW9tYWUnLCAnPG91dGZpbGUubWFlPic=

>  <s_epik_input>  (1) 
Tz1DKFtDSDNdKWMoYzFbT0hdKVtjSF1bY0hdYyhjMTIpYzNjKFtjSF1uMilbQ0gyXVtDSDJdTihbQ0gyXTMpW0NIMl1bQ0gyXVtDSDJdW0NIMl1OKFtDSDJdW09IXSlbQ0BIXShbQ0gzXSlbQ0BASF0oW0NIMl1bTkgyXSlbQ0BIXTRbQ0gyXVtDSF09W0NIXVtDSF09W0NIXTQ=

>  <s_glide_docking_method>  (1) 
confgen

>  <s_i_glide_gridfile>  (1) 
gpcr_drd2_6luq_protein_autoprepared_prepared

>  <s_lp_Force_Field>  (1) 
S-OPLS

>  <s_lp_Variant>  (1) 
DiffSBDD_76_num_sample_100-4

>  <s_m_source_file>  (1) 
generated__ligand_DiffSBDD_2026-05-06_prepared.sdf

>  <GenAI_Model>  (1) 
DiffSBDD

>  <Protein>  (1) 
generic_title2

$$$$
DiffSBDD_45_num_sample_100
     RDKit          3D

  0  0  0  0  0  0  0  0  0  0999 V3000
M  V30 BEGIN CTAB
M  V30 COUNTS 63 65 0 0 1
M  V30 BEGIN ATOM
M  V30 1 C 5.982445 6.280143 -19.274717 0
M  V30 2 C 9.414366 7.118308 -9.654165 0
M  V30 3 C 4.494889 6.645795 -19.252478 0
M  V30 4 C 9.860440 8.146364 -6.668179 0 CFG=1
M  V30 5 C 10.288034 6.843179 -7.387270 0 CFG=1
M  V30 6 C 11.853398 9.546472 -7.248273 0
M  V30 7 C 7.942782 5.417007 -15.160743 0
M  V30 8 C 6.191620 6.533890 -16.737562 0 CFG=1
M  V30 9 O 8.693437 5.426979 -16.135411 0
M  V30 10 N 10.610426 6.897225 -8.824350 0
M  V30 11 Cl 11.714073 6.169336 -6.561167 0
M  V30 12 C 7.082050 6.258686 -12.198393 0 CFG=1
M  V30 13 C 6.416841 3.775026 -12.804822 0
M  V30 14 C 4.053965 7.202085 -17.912927 0
M  V30 15 C 8.267895 7.264878 -12.017266 0
M  V30 16 N 10.961159 8.995620 -6.229892 0
M  V30 17 C 5.958146 6.836808 -13.077174 0
M  V30 18 C 9.513105 6.844697 -11.166745 0
M  V30 19 C 4.805067 7.158193 -16.802133 0
M  V30 20 C 11.744233 7.763964 -9.130932 0
M  V30 21 C 7.496929 4.881958 -12.745374 0 CFG=1
M  V30 22 C 6.500349 5.968706 -15.299148 0 CFG=2
M  V30 23 F 9.034971 8.894524 -7.376889 0
M  V30 24 O 6.352809 7.093898 -14.422225 0
M  V30 25 C 6.404312 5.594911 -17.971030 0
M  V30 26 C 11.558086 9.226929 -8.744159 0
M  V30 27 N 8.354446 4.959913 -13.944430 0
M  V30 28 C 9.738330 4.569275 -13.756132 0
M  V30 29 H 6.577760 7.182102 -19.422968 0
M  V30 30 H 6.188110 5.630496 -20.126340 0
M  V30 31 H 9.034807 8.128677 -9.517720 0
M  V30 32 H 8.633980 6.460112 -9.275604 0
M  V30 33 H 3.897384 5.767117 -19.487619 0
M  V30 34 H 4.283557 7.382294 -20.026992 0
M  V30 35 H 9.294896 7.845027 -5.788095 0
M  V30 36 H 9.490849 6.110858 -7.242857 0
M  V30 37 H 12.872368 9.232131 -7.025165 0
M  V30 38 H 11.840955 10.626265 -7.091769 0
M  V30 39 H 6.855339 7.380197 -16.887261 0
M  V30 40 H 6.654745 6.100579 -11.204737 0
M  V30 41 H 6.030721 3.573213 -11.805712 0
M  V30 42 H 5.556418 4.001338 -13.426477 0
M  V30 43 H 6.843015 2.840931 -13.174422 0
M  V30 44 H 3.077712 7.662323 -17.877685 0
M  V30 45 H 8.631326 7.525231 -13.011038 0
M  V30 46 H 7.876291 8.202476 -11.618528 0
M  V30 47 H 10.592869 9.758887 -5.672892 0
M  V30 48 H 5.623845 7.771880 -12.639728 0
M  V30 49 H 5.078285 6.195281 -13.066615 0
M  V30 50 H 9.759450 5.795034 -11.288957 0
M  V30 51 H 10.360756 7.397186 -11.568485 0
M  V30 52 H 4.426958 7.590019 -15.892604 0
M  V30 53 H 12.640518 7.389639 -8.645783 0
M  V30 54 H 11.970488 7.703775 -10.193919 0
M  V30 55 H 8.135188 4.493670 -11.952714 0
M  V30 56 H 5.766256 5.196638 -15.101838 0
M  V30 57 H 7.441215 5.294992 -18.101993 0
M  V30 58 H 5.836471 4.672026 -17.890878 0
M  V30 59 H 12.265927 9.768277 -9.360809 0
M  V30 60 H 10.595790 9.586267 -9.091718 0
M  V30 61 H 10.234898 4.392896 -14.706314 0
M  V30 62 H 10.281839 5.399026 -13.317664 0
M  V30 63 H 9.835411 3.706956 -13.092764 0
M  V30 END ATOM
M  V30 BEGIN BOND
M  V30 1 1 3 1
M  V30 2 1 5 4
M  V30 3 2 9 7
M  V30 4 1 10 2
M  V30 5 1 10 5
M  V30 6 1 11 5
M  V30 7 1 14 3
M  V30 8 1 15 12
M  V30 9 1 16 4
M  V30 10 1 16 6
M  V30 11 1 17 12
M  V30 12 1 18 2
M  V30 13 1 18 15
M  V30 14 1 19 8
M  V30 15 2 19 14
M  V30 16 1 20 10
M  V30 17 1 21 12
M  V30 18 1 21 13
M  V30 19 1 22 7
M  V30 20 1 22 8
M  V30 21 1 23 4
M  V30 22 1 24 17
M  V30 23 1 24 22
M  V30 24 1 25 1
M  V30 25 1 25 8
M  V30 26 1 26 6
M  V30 27 1 26 20
M  V30 28 1 27 7
M  V30 29 1 27 21
M  V30 30 1 28 27
M  V30 31 1 29 1
M  V30 32 1 30 1
M  V30 33 1 31 2
M  V30 34 1 32 2
M  V30 35 1 33 3
M  V30 36 1 34 3
M  V30 37 1 4 35 CFG=1
M  V30 38 1 5 36 CFG=3
M  V30 39 1 37 6
M  V30 40 1 38 6
M  V30 41 1 8 39 CFG=3
M  V30 42 1 12 40 CFG=1
M  V30 43 1 41 13
M  V30 44 1 42 13
M  V30 45 1 43 13
M  V30 46 1 44 14
M  V30 47 1 45 15
M  V30 48 1 46 15
M  V30 49 1 47 16
M  V30 50 1 48 17
M  V30 51 1 49 17
M  V30 52 1 50 18
M  V30 53 1 51 18
M  V30 54 1 52 19
M  V30 55 1 53 20
M  V30 56 1 54 20
M  V30 57 1 21 55 CFG=1
M  V30 58 1 22 56 CFG=1
M  V30 59 1 57 25
M  V30 60 1 58 25
M  V30 61 1 59 26
M  V30 62 1 60 26
M  V30 63 1 61 28
M  V30 64 1 62 28
M  V30 65 1 63 28
M  V30 END BOND
M  V30 END CTAB
M  END
>  <i_epik_Tot_Q>  (1) 
0

>  <i_epik_Tot_abs_Q>  (1) 
0

>  <i_i_glide_confnum>  (1) 
331

>  <i_i_glide_lignum>  (1) 
82

>  <i_i_glide_posenum>  (1) 
152

>  <i_i_glide_rotatable_bonds>  (1) 
5

>  <i_lp_mmshare_version>  (1) 
72125

>  <i_m_source_file_index>  (1) 
46

>  <i_f3d_flags>  (1) 
0

>  <num_sample>  (1) 
100

>  <b_lp_Chiralities_Consistent>  (1) 
1

>  <r_epik_Charging_Adjusted_Penalty>  (1) 
0.015133208647659156

>  <r_epik_Ionization_Penalty>  (1) 
0.015206278080010002

>  <r_epik_Ionization_Penalty_Charging>  (1) 
0

>  <r_epik_Ionization_Penalty_Neutral>  (1) 
0.015206278080010002

>  <r_epik_State_Penalty>  (1) 
0.015133208647659156

>  <r_glide_ring_energy>  (1) 
1.5822242403273115

>  <r_i_docking_score>  (1) 
-4.5434141403060675

>  <r_i_glide_ecoul>  (1) 
-1.1136957941592727

>  <r_i_glide_eff_state_penalty>  (1) 
0.015133208647659156

>  <r_i_glide_einternal>  (1) 
7.2965962938392508

>  <r_i_glide_emodel>  (1) 
-24.5638025595706

>  <r_i_glide_emodel_strain>  (1) 
0.97255618043647019

>  <r_i_glide_energy>  (1) 
-23.549768775302805

>  <r_i_glide_erotb>  (1) 
0.45657733151366331

>  <r_i_glide_esite>  (1) 
-0.064058174676305382

>  <r_i_glide_evdw>  (1) 
-22.436072981143532

>  <r_i_glide_gscore>  (1) 
-4.5585473489537263

>  <r_i_glide_gscore_strain>  (1) 
0

>  <r_i_glide_hbond>  (1) 
0

>  <r_i_glide_ligand_efficiency>  (1) 
-0.16226479072521668

>  <r_i_glide_ligand_efficiency_ln>  (1) 
-1.0487533840184109

>  <r_i_glide_ligand_efficiency_sa>  (1) 
-0.49273147403990536

>  <r_i_glide_lipo>  (1) 
-2.1600646921026101

>  <r_i_glide_metal>  (1) 
-0

>  <r_i_glide_rewards>  (1) 
-1.5021437955074064

>  <r_lp_Energy>  (1) 
30.384622

>  <s_epik_cmdline>  (1) 
J2VwaWtfcHl0aG9uJywgJy1waHQnLCAnMS4wJywgJy1waCcsICc3LjQnLCAnLXRuJywgJzgnLCAnLW1hJywgJzUwMCcsICctaW1hZScsICc8aW5maWxlLm1hZT4nLCAnLW9tYWUnLCAnPG91dGZpbGUubWFlPic=

>  <s_epik_input>  (1) 
W0NIMl0xW0NIMl1bQ0gyXVtDSF09W0NIXVtDQEhdMVtDQEBIXShDMj1PKU9bQ0gyXVtDQEBIXShbQ0BASF0oW0NIM10pTjJbQ0gzXSlbQ0gyXVtDSDJdW0NIMl1OKFtDQEBIXShDbClbQ0BASF0zRilbQ0gyXVtDSDJdW0NIMl1bTkhdMw==

>  <s_glide_docking_method>  (1) 
confgen

>  <s_i_glide_gridfile>  (1) 
gpcr_drd2_6luq_protein_autoprepared_prepared

>  <s_lp_Force_Field>  (1) 
S-OPLS

>  <s_lp_Variant>  (1) 
DiffSBDD_45_num_sample_100-1

>  <s_m_source_file>  (1) 
generated__ligand_DiffSBDD_2026-05-06_prepared.sdf

>  <GenAI_Model>  (1) 
DiffSBDD

>  <Protein>  (1) 
generic_title2

$$$$
DiffSBDD_60_num_sample_100
     RDKit          3D

  0  0  0  0  0  0  0  0  0  0999 V3000
M  V30 BEGIN CTAB
M  V30 COUNTS 39 41 0 0 1
M  V30 BEGIN ATOM
M  V30 1 C 5.434430 7.769360 -12.317795 0
M  V30 2 N 7.636537 4.702086 -14.093928 0
M  V30 3 C 5.709222 7.367950 -16.745453 0
M  V30 4 C 6.181521 6.226323 -17.263214 0
M  V30 5 N 5.719515 6.375120 -12.505253 0
M  V30 6 C 5.788612 3.566223 -12.801829 0
M  V30 7 C 6.828994 7.005085 -14.559461 0 CFG=2
M  V30 8 N 5.967714 7.769328 -15.454432 0
M  V30 9 C 8.100116 2.574327 -13.000344 0
M  V30 10 C 7.038574 5.260618 -16.459480 0
M  V30 11 C 6.291231 5.728815 -11.342351 0
M  V30 12 C 7.039549 3.429420 -13.699595 0 CFG=2
M  V30 13 C 6.754233 5.492256 -14.950374 0 CFG=1
M  V30 14 C 6.669043 7.331278 -13.066211 0 CFG=1
M  V30 15 C 5.953236 4.234202 -11.396194 0
M  V30 16 C 7.785245 1.071578 -13.038866 0
M  V30 17 H 4.634649 8.203225 -12.906182 0
M  V30 18 H 5.554941 8.194527 -11.324158 0
M  V30 19 H 7.766943 5.223846 -13.238075 0
M  V30 20 H 5.096364 8.056370 -17.310621 0
M  V30 21 H 5.434845 2.546548 -12.691672 0
M  V30 22 H 4.957044 4.028796 -13.330364 0
M  V30 23 H 7.834459 7.337942 -14.804287 0
M  V30 24 H 8.304677 2.931530 -11.991968 0
M  V30 25 H 9.034814 2.729384 -13.491668 0
M  V30 26 H 8.088630 5.440109 -16.693505 0
M  V30 27 H 6.812484 4.233219 -16.741780 0
M  V30 28 H 7.374576 5.848589 -11.293705 0
M  V30 29 H 5.882559 6.157289 -10.425802 0
M  V30 30 H 6.755245 2.921844 -14.622913 0
M  V30 31 H 5.718625 5.199763 -14.806142 0
M  V30 32 H 7.616047 7.490298 -12.551875 0
M  V30 33 H 5.034645 4.081706 -10.838563 0
M  V30 34 H 6.711710 3.769291 -10.782339 0
M  V30 35 H 8.634277 0.487101 -12.691964 0
M  V30 36 H 7.563051 0.740911 -14.054178 0
M  V30 37 H 6.932392 0.824202 -12.407766 0
M  V30 38 H 5.959274 5.958413 -18.285709 0
M  V30 39 H 5.593686 8.643609 -15.115341 0
M  V30 END ATOM
M  V30 BEGIN BOND
M  V30 1 2 4 3
M  V30 2 1 5 1
M  V30 3 1 8 3
M  V30 4 1 8 7
M  V30 5 1 10 4
M  V30 6 1 11 5
M  V30 7 1 12 2
M  V30 8 1 12 6
M  V30 9 1 12 9
M  V30 10 1 13 2
M  V30 11 1 13 7
M  V30 12 1 13 10
M  V30 13 1 14 1
M  V30 14 1 14 5
M  V30 15 1 14 7
M  V30 16 1 15 6
M  V30 17 1 15 11
M  V30 18 1 16 9
M  V30 19 1 17 1
M  V30 20 1 18 1
M  V30 21 1 19 2
M  V30 22 1 20 3
M  V30 23 1 21 6
M  V30 24 1 22 6
M  V30 25 1 7 23 CFG=3
M  V30 26 1 24 9
M  V30 27 1 25 9
M  V30 28 1 26 10
M  V30 29 1 27 10
M  V30 30 1 28 11
M  V30 31 1 29 11
M  V30 32 1 12 30 CFG=3
M  V30 33 1 13 31 CFG=3
M  V30 34 1 14 32 CFG=1
M  V30 35 1 33 15
M  V30 36 1 34 15
M  V30 37 1 35 16
M  V30 38 1 36 16
M  V30 39 1 37 16
M  V30 40 1 38 4
M  V30 41 1 39 8
M  V30 END BOND
M  V30 END CTAB
M  END
>  <i_epik_Tot_Q>  (1) 
0

>  <i_epik_Tot_abs_Q>  (1) 
0

>  <i_i_glide_confnum>  (1) 
1

>  <i_i_glide_lignum>  (1) 
120

>  <i_i_glide_posenum>  (1) 
313

>  <i_i_glide_rotatable_bonds>  (1) 
1

>  <i_lp_mmshare_version>  (1) 
72125

>  <i_m_source_file_index>  (1) 
61

>  <i_f3d_flags>  (1) 
0

>  <num_sample>  (1) 
100

>  <b_lp_Chiralities_Consistent>  (1) 
1

>  <r_epik_Charging_Adjusted_Penalty>  (1) 
4.9692066631576726e-06

>  <r_epik_Ionization_Penalty>  (1) 
2.1336840305667621

>  <r_epik_Ionization_Penalty_Charging>  (1) 
4.9692066631576726e-06

>  <r_epik_Ionization_Penalty_Neutral>  (1) 
2.1336790613600991

>  <r_epik_State_Penalty>  (1) 
-0

>  <r_glide_ring_energy>  (1) 
0

>  <r_i_docking_score>  (1) 
-4.5430667434838972

>  <r_i_glide_ecoul>  (1) 
-1.2229582303204469

>  <r_i_glide_eff_state_penalty>  (1) 
-0

>  <r_i_glide_einternal>  (1) 
0.25092354595190192

>  <r_i_glide_emodel>  (1) 
-23.85931915199178

>  <r_i_glide_emodel_strain>  (1) 
0

>  <r_i_glide_energy>  (1) 
-19.166901265107558

>  <r_i_glide_erotb>  (1) 
0

>  <r_i_glide_esite>  (1) 
0

>  <r_i_glide_evdw>  (1) 
-17.943943034787111

>  <r_i_glide_gscore>  (1) 
-4.5430667434838972

>  <r_i_glide_gscore_strain>  (1) 
0

>  <r_i_glide_hbond>  (1) 
0

>  <r_i_glide_ligand_efficiency>  (1) 
-0.28394167146774357

>  <r_i_glide_ligand_efficiency_ln>  (1) 
-1.2042305901785881

>  <r_i_glide_ligand_efficiency_sa>  (1) 
-0.71548817764908934

>  <r_i_glide_lipo>  (1) 
-1.5625283117419286

>  <r_i_glide_metal>  (1) 
-0

>  <r_i_glide_rewards>  (1) 
-1.8998975454545457

>  <r_lp_Energy>  (1) 
35.391235999999999

>  <r_lp_tautomer_probability>  (1) 
1

>  <s_epik_Chemistry_Notes>  (1) 
This compound has an imine and may undergo hydrolysis.

>  <s_epik_cmdline>  (1) 
J2VwaWtfcHl0aG9uJywgJy1waHQnLCAnMS4wJywgJy1waCcsICc3LjQnLCAnLXRuJywgJzgnLCAnLW1hJywgJzUwMCcsICctaW1hZScsICc8aW5maWxlLm1hZT4nLCAnLW9tYWUnLCAnPG91dGZpbGUubWFlPic=

>  <s_epik_input>  (1) 
W05IXTFbQ0hdPVtDSF1bQ0gyXVtDQEhdKFtDQEBIXTFbQ0BIXShOMjMpW0NIMl0yKVtOSF1bQ0BASF0oW0NIMl1bQ0gzXSlbQ0gyXVtDSDJdW0NIMl0z

>  <s_glide_docking_method>  (1) 
confgen

>  <s_i_glide_gridfile>  (1) 
gpcr_drd2_6luq_protein_autoprepared_prepared

>  <s_lp_Force_Field>  (1) 
S-OPLS

>  <s_lp_Variant>  (1) 
DiffSBDD_60_num_sample_100-1

>  <s_m_source_file>  (1) 
generated__ligand_DiffSBDD_2026-05-06_prepared.sdf

>  <GenAI_Model>  (1) 
DiffSBDD

>  <Protein>  (1) 
generic_title2

$$$$
DiffSBDD_11_num_sample_100
     RDKit          3D

  0  0  0  0  0  0  0  0  0  0999 V3000
M  V30 BEGIN CTAB
M  V30 COUNTS 56 58 0 0 1
M  V30 BEGIN ATOM
M  V30 1 C 6.675682 1.156866 -13.567986 0 CFG=1
M  V30 2 C 9.621203 6.851174 -7.998712 0 CFG=1
M  V30 3 N 7.075109 -0.153162 -15.656553 0
M  V30 4 C 9.358362 6.697179 -10.850368 0 CFG=1
M  V30 5 O 8.011786 -1.082200 -17.490695 0
M  V30 6 C 6.239735 0.013148 -12.636832 0
M  V30 7 S 10.542497 7.965971 -10.345776 0
M  V30 8 O 11.231097 6.931909 -4.540760 0
M  V30 9 O 9.774419 5.579231 -8.613451 0
M  V30 10 C 9.759759 6.209917 -12.202365 0
M  V30 11 C 7.018054 3.707556 -13.560483 0
M  V30 12 C 11.452174 8.569411 -7.907223 0
M  V30 13 C 9.709460 6.779774 -6.456266 0
M  V30 14 C 8.895723 5.274477 -13.037533 0
M  V30 15 C 9.369443 5.188069 -14.491866 0
M  V30 16 C 7.291124 -0.224876 -16.985976 0
M  V30 17 C 10.586965 7.840686 -8.619427 0
M  V30 18 C 6.234952 0.869722 -15.025347 0
M  V30 19 C 7.784667 4.566413 -12.568755 0
M  V30 20 C 6.598719 0.813127 -17.875644 0
M  V30 21 Cl 11.034821 9.861190 -5.487136 0
M  V30 22 C 9.309796 5.464174 -9.970857 0 CFG=1
M  V30 23 C 6.184106 2.526605 -13.019380 0
M  V30 24 C 11.595458 8.464191 -6.419377 0 CFG=1
M  V30 25 C 11.123103 7.073863 -5.939227 0 CFG=1
M  V30 26 O 7.035682 3.902793 -14.774369 0
M  V30 27 C 7.909525 4.969302 -10.037790 0
M  V30 28 C 7.259309 4.569298 -11.158142 0
M  V30 29 H 7.767345 1.177999 -13.547602 0
M  V30 30 H 8.634838 7.213282 -8.230159 0
M  V30 31 H 7.512522 -0.840059 -15.056825 0
M  V30 32 H 8.392693 7.196006 -10.918931 0
M  V30 33 H 5.153623 -0.078714 -12.601800 0
M  V30 34 H 6.593989 0.169243 -11.618418 0
M  V30 35 H 6.634833 -0.945116 -12.973078 0
M  V30 36 H 10.941211 6.061638 -4.306431 0
M  V30 37 H 9.881987 7.112749 -12.790861 0
M  V30 38 H 10.756514 5.769798 -12.161907 0
M  V30 39 H 12.118222 9.254350 -8.411943 0
M  V30 40 H 9.034835 7.525467 -6.035455 0
M  V30 41 H 9.346005 5.812865 -6.113914 0
M  V30 42 H 10.380027 5.585634 -14.587988 0
M  V30 43 H 8.726555 5.772700 -15.149680 0
M  V30 44 H 9.434158 4.169301 -14.862767 0
M  V30 45 H 5.196238 0.535648 -15.045195 0
M  V30 46 H 6.262229 1.788404 -15.598646 0
M  V30 47 H 5.524348 0.843387 -17.691336 0
M  V30 48 H 6.743148 0.559887 -18.926084 0
M  V30 49 H 7.020501 1.805941 -17.717348 0
M  V30 50 H 9.879926 4.636524 -10.385996 0
M  V30 51 H 5.138739 2.686837 -13.279781 0
M  V30 52 H 6.234645 2.463916 -11.937393 0
M  V30 53 H 12.634879 8.569302 -6.282338 0
M  V30 54 H 11.786383 6.320699 -6.369950 0
M  V30 55 H 7.391610 4.911074 -9.091794 0
M  V30 56 H 6.252772 4.209968 -11.012337 0
M  V30 END ATOM
M  V30 BEGIN BOND
M  V30 1 1 6 1
M  V30 2 1 7 4
M  V30 3 1 9 2
M  V30 4 1 10 4
M  V30 5 1 13 2
M  V30 6 1 14 10
M  V30 7 1 15 14
M  V30 8 1 16 3
M  V30 9 2 16 5
M  V30 10 1 17 2
M  V30 11 1 17 7
M  V30 12 2 17 12
M  V30 13 1 18 1
M  V30 14 1 18 3
M  V30 15 1 19 11
M  V30 16 2 19 14
M  V30 17 1 20 16
M  V30 18 1 22 4
M  V30 19 1 22 9
M  V30 20 1 23 1
M  V30 21 1 23 11
M  V30 22 1 24 12
M  V30 23 1 24 21
M  V30 24 1 25 8
M  V30 25 1 25 13
M  V30 26 1 25 24
M  V30 27 2 26 11
M  V30 28 1 27 22
M  V30 29 1 28 19
M  V30 30 2 28 27
M  V30 31 1 1 29 CFG=3
M  V30 32 1 2 30 CFG=1
M  V30 33 1 31 3
M  V30 34 1 4 32 CFG=3
M  V30 35 1 33 6
M  V30 36 1 34 6
M  V30 37 1 35 6
M  V30 38 1 36 8
M  V30 39 1 37 10
M  V30 40 1 38 10
M  V30 41 1 39 12
M  V30 42 1 40 13
M  V30 43 1 41 13
M  V30 44 1 42 15
M  V30 45 1 43 15
M  V30 46 1 44 15
M  V30 47 1 45 18
M  V30 48 1 46 18
M  V30 49 1 47 20
M  V30 50 1 48 20
M  V30 51 1 49 20
M  V30 52 1 22 50 CFG=3
M  V30 53 1 51 23
M  V30 54 1 52 23
M  V30 55 1 24 53 CFG=3
M  V30 56 1 25 54 CFG=3
M  V30 57 1 55 27
M  V30 58 1 56 28
M  V30 END BOND
M  V30 END CTAB
M  END
>  <i_epik_Tot_Q>  (1) 
0

>  <i_epik_Tot_abs_Q>  (1) 
0

>  <i_i_glide_confnum>  (1) 
252

>  <i_i_glide_lignum>  (1) 
18

>  <i_i_glide_posenum>  (1) 
230

>  <i_i_glide_rotatable_bonds>  (1) 
7

>  <i_lp_mmshare_version>  (1) 
72125

>  <i_m_source_file_index>  (1) 
12

>  <i_f3d_flags>  (1) 
0

>  <num_sample>  (1) 
100

>  <b_lp_Chiralities_Consistent>  (1) 
1

>  <r_epik_Charging_Adjusted_Penalty>  (1) 
0

>  <r_epik_Ionization_Penalty>  (1) 
0.000136015572717869

>  <r_epik_Ionization_Penalty_Charging>  (1) 
0

>  <r_epik_Ionization_Penalty_Neutral>  (1) 
0.000136015572717869

>  <r_epik_State_Penalty>  (1) 
-0

>  <r_glide_ring_energy>  (1) 
0

>  <r_i_docking_score>  (1) 
-4.5412299677520647

>  <r_i_glide_ecoul>  (1) 
-3.5949695990273129

>  <r_i_glide_eff_state_penalty>  (1) 
-0

>  <r_i_glide_einternal>  (1) 
36.214393955935563

>  <r_i_glide_emodel>  (1) 
-33.503060302287146

>  <r_i_glide_emodel_strain>  (1) 
0.57820203780633506

>  <r_i_glide_energy>  (1) 
-42.546594528337543

>  <r_i_glide_erotb>  (1) 
0.5467392007768872

>  <r_i_glide_esite>  (1) 
-0.020906176376100979

>  <r_i_glide_evdw>  (1) 
-38.951624929310228

>  <r_i_glide_gscore>  (1) 
-4.5412299677520647

>  <r_i_glide_gscore_strain>  (1) 
0

>  <r_i_glide_hbond>  (1) 
-0.1613667138621771

>  <r_i_glide_ligand_efficiency>  (1) 
-0.16218678456257374

>  <r_i_glide_ligand_efficiency_ln>  (1) 
-1.0482492128628542

>  <r_i_glide_ligand_efficiency_sa>  (1) 
-0.49249460138668544

>  <r_i_glide_lipo>  (1) 
-2.2340355313098854

>  <r_i_glide_metal>  (1) 
-0

>  <r_i_glide_rewards>  (1) 
-0.18483406066117913

>  <r_lp_Energy>  (1) 
23.239920999999999

>  <r_lp_tautomer_probability>  (1) 
1

>  <s_epik_cmdline>  (1) 
J2VwaWtfcHl0aG9uJywgJy1waHQnLCAnMS4wJywgJy1waCcsICc3LjQnLCAnLXRuJywgJzgnLCAnLW1hJywgJzUwMCcsICctaW1hZScsICc8aW5maWxlLm1hZT4nLCAnLW9tYWUnLCAnPG91dGZpbGUubWFlPic=

>  <s_epik_input>  (1) 
Tz1DKFtDSDNdKVtOSF1bQ0gyXVtDQEhdKFtDSDNdKVtDSDJdQyg9TylDKD1DKFtDSDJdMSlbQ0gzXSlbQ0hdPVtDSF1bQ0BIXShPMilbQ0BIXTFTQyhbQ0BASF0yMyk9W0NIXVtDQEBIXShDbClbQ0BASF0oW09IXSlbQ0gyXTM=

>  <s_glide_docking_method>  (1) 
confgen

>  <s_i_glide_gridfile>  (1) 
gpcr_drd2_6luq_protein_autoprepared_prepared

>  <s_lp_Force_Field>  (1) 
S-OPLS

>  <s_lp_Variant>  (1) 
DiffSBDD_11_num_sample_100-1

>  <s_m_source_file>  (1) 
generated__ligand_DiffSBDD_2026-05-06_prepared.sdf

>  <GenAI_Model>  (1) 
DiffSBDD

>  <Protein>  (1) 
generic_title2

$$$$
DiffSBDD_26_num_sample_100
     RDKit          3D

  0  0  0  0  0  0  0  0  0  0999 V3000
M  V30 BEGIN CTAB
M  V30 COUNTS 72 77 0 0 1
M  V30 BEGIN ATOM
M  V30 1 C 12.698508 8.569309 -22.264753 0
M  V30 2 C 10.803027 7.376421 -8.160227 0
M  V30 3 C 6.363475 5.769303 -16.305431 0
M  V30 4 C 9.434838 8.068314 -10.696262 0
M  V30 5 F 7.434843 7.675000 -13.729649 0
M  V30 6 C 9.758545 5.640301 -19.328589 0 CFG=1
M  V30 7 C 8.565810 4.759758 -16.442881 0
M  V30 8 N 11.598609 8.524636 -6.367098 0
M  V30 9 C 12.823970 3.414739 -19.813735 0
M  V30 10 C 12.217673 4.790907 -19.506740 0 CFG=1
M  V30 11 C 13.147245 5.933064 -19.933926 0
M  V30 12 C 9.434839 6.751899 -10.184889 0
M  V30 13 C 10.779729 7.558073 -6.752661 0
M  V30 14 C 8.071240 6.035500 -12.093650 0
M  V30 15 N 12.291463 8.564306 -9.819247 0
M  V30 16 C 11.751663 8.276389 -8.575435 0
M  V30 17 O 12.243884 8.969304 -7.524980 0
M  V30 18 C 5.164304 6.436558 -16.948371 0
M  V30 19 C 11.217191 7.543845 -20.484953 0 CFG=2
M  V30 20 C 9.958465 6.837150 -5.741801 0
M  V30 21 N 10.049911 6.452121 -8.951997 0
M  V30 22 C 10.316555 6.310218 -20.557959 0 CFG=1
M  V30 23 C 11.504982 8.087468 -21.879545 0
M  V30 24 C 8.406671 4.945010 -19.299354 0
M  V30 25 C 8.765909 8.362750 -11.891668 0
M  V30 26 C 8.519795 4.603579 -15.049910 0
M  V30 27 C 13.910928 8.639635 -21.357287 0
M  V30 28 C 10.843992 4.951154 -20.134651 0 CFG=2
M  V30 29 C 7.310401 4.936102 -12.839887 0
M  V30 30 C 8.084503 7.361529 -12.588450 0
M  V30 31 C 8.750029 5.733303 -10.889255 0
M  V30 32 C 13.539564 8.443626 -19.876216 0
M  V30 33 O 7.456906 5.587824 -18.456902 0
M  V30 34 C 7.466560 5.369286 -17.090888 0
M  V30 35 C 12.516146 7.312442 -19.656941 0 CFG=2
M  V30 36 C 7.376078 5.040702 -14.356180 0
M  V30 37 N 6.293535 5.586566 -14.965615 0
M  V30 38 H 12.826860 8.934153 -23.274001 0
M  V30 39 H 13.004717 9.270651 -9.956553 0
M  V30 40 H 9.916017 8.860839 -10.159426 0
M  V30 41 H 10.060366 6.083769 -18.382617 0
M  V30 42 H 9.432670 4.436598 -16.996000 0
M  V30 43 H 12.967104 3.275406 -20.885759 0
M  V30 44 H 12.175887 2.613691 -19.456473 0
M  V30 45 H 13.791827 3.294540 -19.326612 0
M  V30 46 H 12.092319 4.848986 -18.424446 0
M  V30 47 H 14.090997 5.843775 -19.394554 0
M  V30 48 H 13.387651 5.836556 -20.993761 0
M  V30 49 H 11.994797 8.097051 -10.662814 0
M  V30 50 H 4.900286 5.934917 -17.879357 0
M  V30 51 H 5.388817 7.480474 -17.167611 0
M  V30 52 H 4.294772 6.401028 -16.291784 0
M  V30 53 H 10.637566 8.326076 -19.991824 0
M  V30 54 H 10.089051 5.769306 -5.858470 0
M  V30 55 H 8.904213 7.058174 -5.891666 0
M  V30 56 H 9.694973 5.623919 -8.497532 0
M  V30 57 H 9.629940 6.325498 -21.402736 0
M  V30 58 H 10.685366 8.074021 -22.583077 0
M  V30 59 H 7.997723 4.929271 -20.309763 0
M  V30 60 H 8.531617 3.898771 -19.015251 0
M  V30 61 H 8.763590 9.369303 -12.271027 0
M  V30 62 H 9.352018 4.169346 -14.517184 0
M  V30 63 H 14.399951 9.605722 -21.488724 0
M  V30 64 H 14.622585 7.878375 -21.678213 0
M  V30 65 H 10.535006 4.120968 -20.768317 0
M  V30 66 H 7.697011 3.960247 -12.543986 0
M  V30 67 H 6.269162 4.962997 -12.516524 0
M  V30 68 H 8.730958 4.726632 -10.497742 0
M  V30 69 H 14.439668 8.267512 -19.286817 0
M  V30 70 H 13.118312 9.369305 -19.491669 0
M  V30 71 H 12.244304 7.332078 -18.600301 0
M  V30 72 H 10.235340 7.093901 -4.720183 0
M  V30 END ATOM
M  V30 BEGIN BOND
M  V30 1 1 10 9
M  V30 2 1 11 10
M  V30 3 1 12 4
M  V30 4 1 13 2
M  V30 5 2 13 8
M  V30 6 2 16 2
M  V30 7 1 16 15
M  V30 8 1 17 8
M  V30 9 1 17 16
M  V30 10 1 18 3
M  V30 11 1 20 13
M  V30 12 1 21 2
M  V30 13 1 21 12
M  V30 14 1 22 6
M  V30 15 1 22 19
M  V30 16 2 23 1
M  V30 17 1 23 19
M  V30 18 1 24 6
M  V30 19 2 25 4
M  V30 20 2 26 7
M  V30 21 1 27 1
M  V30 22 1 28 6
M  V30 23 1 28 10
M  V30 24 1 28 22
M  V30 25 1 29 14
M  V30 26 1 30 5
M  V30 27 2 30 14
M  V30 28 1 30 25
M  V30 29 2 31 12
M  V30 30 1 31 14
M  V30 31 1 32 27
M  V30 32 1 33 24
M  V30 33 2 34 3
M  V30 34 1 34 7
M  V30 35 1 34 33
M  V30 36 1 35 11
M  V30 37 1 35 19
M  V30 38 1 35 32
M  V30 39 1 36 26
M  V30 40 1 36 29
M  V30 41 1 37 3
M  V30 42 2 37 36
M  V30 43 1 38 1
M  V30 44 1 39 15
M  V30 45 1 40 4
M  V30 46 1 6 41 CFG=1
M  V30 47 1 42 7
M  V30 48 1 43 9
M  V30 49 1 44 9
M  V30 50 1 45 9
M  V30 51 1 10 46 CFG=1
M  V30 52 1 47 11
M  V30 53 1 48 11
M  V30 54 1 49 15
M  V30 55 1 50 18
M  V30 56 1 51 18
M  V30 57 1 52 18
M  V30 58 1 19 53 CFG=1
M  V30 59 1 54 20
M  V30 60 1 55 20
M  V30 61 1 56 21
M  V30 62 1 22 57 CFG=3
M  V30 63 1 58 23
M  V30 64 1 59 24
M  V30 65 1 60 24
M  V30 66 1 61 25
M  V30 67 1 62 26
M  V30 68 1 63 27
M  V30 69 1 64 27
M  V30 70 1 28 65 CFG=3
M  V30 71 1 66 29
M  V30 72 1 67 29
M  V30 73 1 68 31
M  V30 74 1 69 32
M  V30 75 1 70 32
M  V30 76 1 35 71 CFG=1
M  V30 77 1 72 20
M  V30 END BOND
M  V30 END CTAB
M  END
>  <i_epik_Tot_Q>  (1) 
0

>  <i_epik_Tot_abs_Q>  (1) 
0

>  <i_i_glide_confnum>  (1) 
198

>  <i_i_glide_lignum>  (1) 
41

>  <i_i_glide_posenum>  (1) 
391

>  <i_i_glide_rotatable_bonds>  (1) 
7

>  <i_lp_mmshare_version>  (1) 
72125

>  <i_m_source_file_index>  (1) 
27

>  <i_f3d_flags>  (1) 
0

>  <num_sample>  (1) 
100

>  <b_lp_Chiralities_Consistent>  (1) 
1

>  <r_epik_Charging_Adjusted_Penalty>  (1) 
0

>  <r_epik_Ionization_Penalty>  (1) 
0.044548018534552827

>  <r_epik_Ionization_Penalty_Charging>  (1) 
0

>  <r_epik_Ionization_Penalty_Neutral>  (1) 
0.044548018534552827

>  <r_epik_State_Penalty>  (1) 
-0

>  <r_glide_ring_energy>  (1) 
0

>  <r_i_docking_score>  (1) 
-4.5392641627516337

>  <r_i_glide_ecoul>  (1) 
-3.0841955469512081

>  <r_i_glide_eff_state_penalty>  (1) 
-0

>  <r_i_glide_einternal>  (1) 
6.9894794865669105

>  <r_i_glide_emodel>  (1) 
-46.97110614270413

>  <r_i_glide_emodel_strain>  (1) 
0.60968252312812865

>  <r_i_glide_energy>  (1) 
-39.761898185050192

>  <r_i_glide_erotb>  (1) 
0.5661782271396133

>  <r_i_glide_esite>  (1) 
-0.048278272255036399

>  <r_i_glide_evdw>  (1) 
-36.677702638098985

>  <r_i_glide_gscore>  (1) 
-4.5392641627516337

>  <r_i_glide_gscore_strain>  (1) 
0

>  <r_i_glide_hbond>  (1) 
-0.21048099084188515

>  <r_i_glide_ligand_efficiency>  (1) 
-0.12268281520950361

>  <r_i_glide_ligand_efficiency_ln>  (1) 
-0.9844599814505266

>  <r_i_glide_ligand_efficiency_sa>  (1) 
-0.40880635766255052

>  <r_i_glide_lipo>  (1) 
-1.7756863348870382

>  <r_i_glide_metal>  (1) 
-0

>  <r_i_glide_rewards>  (1) 
-0.77448232795965655

>  <r_lp_Energy>  (1) 
47.597484999999999

>  <r_lp_tautomer_probability>  (1) 
1

>  <s_epik_cmdline>  (1) 
J2VwaWtfcHl0aG9uJywgJy1waHQnLCAnMS4wJywgJy1waCcsICc3LjQnLCAnLXRuJywgJzgnLCAnLW1hJywgJzUwMCcsICctaW1hZScsICc8aW5maWxlLm1hZT4nLCAnLW9tYWUnLCAnPG91dGZpbGUubWFlPic=

>  <s_epik_input>  (1) 
W0NIXTE9W0NIXVtDSDJdW0NIMl1bQ0BASF0yW0NIMl1bQ0BIXShbQ0gzXSlbQ0hdKFtDQEBIXTNbQ0BIXTEyKVtDQEBIXTNbQ0gyXU9jKGM0W0NIM10pW2NIXVtjSF1jKG40KVtDSDJdYyhbY0hdNSljKEYpW2NIXVtjSF1jNVtOSF1bQ0BIXTZDKD1bQ0gyXSlbTkhdT0MvNj1OXFtIXQ==

>  <s_glide_docking_method>  (1) 
confgen

>  <s_i_glide_gridfile>  (1) 
gpcr_drd2_6luq_protein_autoprepared_prepared

>  <s_lp_Force_Field>  (1) 
S-OPLS

>  <s_lp_Variant>  (1) 
DiffSBDD_26_num_sample_100-1

>  <s_m_source_file>  (1) 
generated__ligand_DiffSBDD_2026-05-06_prepared.sdf

>  <GenAI_Model>  (1) 
DiffSBDD

>  <Protein>  (1) 
generic_title2

$$$$
DiffSBDD_49_num_sample_100
     RDKit          3D

  0  0  0  0  0  0  0  0  0  0999 V3000
M  V30 BEGIN CTAB
M  V30 COUNTS 53 56 0 0 1
M  V30 BEGIN ATOM
M  V30 1 N 7.314053 4.733938 -14.090477 0
M  V30 2 C 7.132170 0.376819 -15.506586 0
M  V30 3 C 5.979859 0.622756 -13.372669 0
M  V30 4 C 8.338012 7.915183 -11.664062 0
M  V30 5 C 4.929197 7.601576 -18.342627 0
M  V30 6 S 9.035534 3.883294 -12.278520 0
M  V30 7 C 7.795820 1.594393 -15.290431 0
M  V30 8 C 6.035350 7.280309 -16.064039 0 CFG=1
M  V30 9 C 8.242238 3.659317 -13.901073 0 CFG=1
M  V30 10 C 8.840567 6.508350 -11.311687 0
M  V30 11 C 5.824398 7.148028 -14.518938 0
M  V30 12 C 7.757351 5.752341 -13.502423 0
M  V30 13 C 5.870089 6.589432 -19.029444 0 CFG=2
M  V30 14 O 5.975011 4.476170 -20.226437 0
M  V30 15 C 7.138265 7.142301 -13.666305 0 CFG=2
M  V30 16 C 5.191206 5.245745 -19.338857 0
M  V30 17 C 7.548871 2.332831 -14.113759 0
M  V30 18 C 6.904709 6.178864 -16.716062 0
M  V30 19 C 6.223209 -0.105162 -14.550599 0
M  V30 20 C 8.961194 5.655059 -12.589725 0 CFG=2
M  V30 21 C 4.701409 7.340008 -16.837098 0
M  V30 22 N 7.019542 7.768961 -12.321576 0 CHG=1
M  V30 23 C 7.163506 6.424736 -18.212178 0
M  V30 24 C 6.639989 1.843816 -13.153604 0
M  V30 25 H 7.837360 7.763823 -14.218513 0
M  V30 26 H 7.315971 -0.187535 -16.409071 0
M  V30 27 H 5.280167 0.245950 -12.640890 0
M  V30 28 H 8.272277 8.566729 -10.793673 0
M  V30 29 H 9.039844 8.414780 -12.332917 0
M  V30 30 H 5.381371 8.583184 -18.456692 0
M  V30 31 H 3.974218 7.654561 -18.866075 0
M  V30 32 H 8.488482 1.968215 -16.030068 0
M  V30 33 H 6.541797 8.232887 -16.225401 0
M  V30 34 H 9.026723 3.769792 -14.652635 0
M  V30 35 H 8.146246 6.044618 -10.608903 0
M  V30 36 H 9.801329 6.564445 -10.799043 0
M  V30 37 H 5.201006 7.990779 -14.220887 0
M  V30 38 H 5.213926 6.271229 -14.295695 0
M  V30 39 H 6.144857 7.023235 -19.992478 0
M  V30 40 H 5.557733 3.636835 -20.352600 0
M  V30 41 H 4.221648 5.409808 -19.807479 0
M  V30 42 H 5.034840 4.679214 -18.424619 0
M  V30 43 H 7.876957 6.133336 -16.233008 0
M  V30 44 H 6.435737 5.204038 -16.577849 0
M  V30 45 H 5.710365 -1.030973 -14.721144 0
M  V30 46 H 4.066778 8.128337 -16.428627 0
M  V30 47 H 4.150047 6.408482 -16.704385 0
M  V30 48 H 7.771676 5.616280 -18.618552 0
M  V30 49 H 7.768768 7.321473 -18.324057 0
M  V30 50 H 6.445134 2.409448 -12.257116 0
M  V30 51 H 6.612099 8.686795 -12.413006 0
M  V30 52 H 9.849113 5.942042 -13.152999 0
M  V30 53 H 6.429197 7.219889 -11.708628 0
M  V30 END ATOM
M  V30 BEGIN BOND
M  V30 1 1 7 2
M  V30 2 1 9 1
M  V30 3 1 9 6
M  V30 4 1 10 4
M  V30 5 1 11 8
M  V30 6 2 12 1
M  V30 7 1 13 5
M  V30 8 1 15 11
M  V30 9 1 15 12
M  V30 10 1 16 13
M  V30 11 1 16 14
M  V30 12 2 17 7
M  V30 13 1 17 9
M  V30 14 1 18 8
M  V30 15 2 19 2
M  V30 16 1 19 3
M  V30 17 1 20 6
M  V30 18 1 20 10
M  V30 19 1 20 12
M  V30 20 1 21 5
M  V30 21 1 21 8
M  V30 22 1 22 4
M  V30 23 1 22 15
M  V30 24 1 23 13
M  V30 25 1 23 18
M  V30 26 2 24 3
M  V30 27 1 24 17
M  V30 28 1 15 25 CFG=3
M  V30 29 1 26 2
M  V30 30 1 27 3
M  V30 31 1 28 4
M  V30 32 1 29 4
M  V30 33 1 30 5
M  V30 34 1 31 5
M  V30 35 1 32 7
M  V30 36 1 8 33 CFG=1
M  V30 37 1 9 34 CFG=3
M  V30 38 1 35 10
M  V30 39 1 36 10
M  V30 40 1 37 11
M  V30 41 1 38 11
M  V30 42 1 13 39 CFG=3
M  V30 43 1 40 14
M  V30 44 1 41 16
M  V30 45 1 42 16
M  V30 46 1 43 18
M  V30 47 1 44 18
M  V30 48 1 45 19
M  V30 49 1 46 21
M  V30 50 1 47 21
M  V30 51 1 48 23
M  V30 52 1 49 23
M  V30 53 1 50 24
M  V30 54 1 51 22
M  V30 55 1 20 52 CFG=3
M  V30 56 1 53 22
M  V30 END BOND
M  V30 END CTAB
M  END
>  <i_epik_Tot_Q>  (1) 
1

>  <i_epik_Tot_abs_Q>  (1) 
1

>  <i_i_glide_confnum>  (1) 
108

>  <i_i_glide_lignum>  (1) 
93

>  <i_i_glide_posenum>  (1) 
269

>  <i_i_glide_rotatable_bonds>  (1) 
5

>  <i_lp_mmshare_version>  (1) 
72125

>  <i_m_source_file_index>  (1) 
50

>  <i_f3d_flags>  (1) 
0

>  <num_sample>  (1) 
100

>  <b_lp_Chiralities_Consistent>  (1) 
1

>  <r_epik_Charging_Adjusted_Penalty>  (1) 
1.8117775797116225

>  <r_epik_Ionization_Penalty>  (1) 
0.90588925903239437

>  <r_epik_Ionization_Penalty_Charging>  (1) 
0.90588878985581123

>  <r_epik_Ionization_Penalty_Neutral>  (1) 
4.6917658313918283e-07

>  <r_epik_State_Penalty>  (1) 
0.90588878985581134

>  <r_glide_ring_energy>  (1) 
0

>  <r_i_docking_score>  (1) 
-4.5359715610904257

>  <r_i_glide_ecoul>  (1) 
-2.12534602755784

>  <r_i_glide_eff_state_penalty>  (1) 
0.90588878985581134

>  <r_i_glide_einternal>  (1) 
2.0408676966931001

>  <r_i_glide_emodel>  (1) 
-35.488777180113907

>  <r_i_glide_emodel_strain>  (1) 
0.38301382354910629

>  <r_i_glide_energy>  (1) 
-28.907186003033143

>  <r_i_glide_erotb>  (1) 
0.63659216225735071

>  <r_i_glide_esite>  (1) 
-0.098252991596504247

>  <r_i_glide_evdw>  (1) 
-26.781839975475304

>  <r_i_glide_gscore>  (1) 
-5.4418603509462367

>  <r_i_glide_gscore_strain>  (1) 
0

>  <r_i_glide_hbond>  (1) 
-0.0032346977602506163

>  <r_i_glide_ligand_efficiency>  (1) 
-0.18899881504543439

>  <r_i_glide_ligand_efficiency_ln>  (1) 
-1.0856661367411518

>  <r_i_glide_ligand_efficiency_sa>  (1) 
-0.54516691957577423

>  <r_i_glide_lipo>  (1) 
-2.6263937932858812

>  <r_i_glide_metal>  (1) 
-0

>  <r_i_glide_rewards>  (1) 
-1.69267712765351

>  <r_lp_Energy>  (1) 
30.244025999999998

>  <r_lp_tautomer_probability>  (1) 
0.99998600000000004

>  <s_epik_Chemistry_Notes>  (1) 
This compound has an imine and may undergo hydrolysis. This compound contains an acetal/aminal-like group ( X-CH(R)-Y where X, Y are N, S, or O) that may be acid/base labile, releasing an aldehyde.

>  <s_epik_cmdline>  (1) 
J2VwaWtfcHl0aG9uJywgJy1waHQnLCAnMS4wJywgJy1waCcsICc3LjQnLCAnLXRuJywgJzgnLCAnLW1hJywgJzUwMCcsICctaW1hZScsICc8aW5maWxlLm1hZT4nLCAnLW9tYWUnLCAnPG91dGZpbGUubWFlPic=

>  <s_epik_input>  (1) 
W2NIXTFbY0hdW2NIXVtjSF1bY0hdYzFbQ0BASF0oW05IXTIpU1tDQEBIXShbQ0BIXTIzKVtDSDJdW0NIMl1OPUMzW0NIMl1bQ0BIXTRbQ0gyXVtDSDJdW0NASF0oW0NIMl1bQ0gyXTQpW0NIMl1bT0hd

>  <s_glide_docking_method>  (1) 
confgen

>  <s_i_glide_gridfile>  (1) 
gpcr_drd2_6luq_protein_autoprepared_prepared

>  <s_lp_Force_Field>  (1) 
S-OPLS

>  <s_lp_Variant>  (1) 
DiffSBDD_49_num_sample_100-3

>  <s_m_source_file>  (1) 
generated__ligand_DiffSBDD_2026-05-06_prepared.sdf

>  <GenAI_Model>  (1) 
DiffSBDD

>  <Protein>  (1) 
generic_title2

$$$$
DiffSBDD_67_num_sample_100
     RDKit          3D

  0  0  0  0  0  0  0  0  0  0999 V3000
M  V30 BEGIN CTAB
M  V30 COUNTS 79 83 0 0 1
M  V30 BEGIN ATOM
M  V30 1 C 7.129302 5.091176 -15.249320 0 CFG=2
M  V30 2 C 7.258255 3.053261 -13.593134 0 CFG=1
M  V30 3 C 8.219487 1.877303 -13.330605 0
M  V30 4 C 6.543889 3.513766 -12.295476 0 CFG=1
M  V30 5 C 9.978258 5.651479 -18.505435 0
M  V30 6 C 7.838979 4.548009 -17.647875 0
M  V30 7 C 14.574893 2.092819 -17.560721 0
M  V30 8 C 15.782740 2.738501 -19.585011 0
M  V30 9 C 7.461728 5.779537 -11.458064 0 CFG=2
M  V30 10 C 16.142167 5.007374 -17.251394 0
M  V30 11 C 11.382311 5.938219 -17.940845 0
M  V30 12 C 14.742615 0.736987 -17.899312 0
M  V30 13 C 13.586647 4.962379 -17.302063 0
M  V30 14 O 15.963290 5.354488 -16.064391 0 CHG=-1
M  V30 15 F 16.618679 1.037183 -21.043777 0
M  V30 16 C 11.039403 2.819145 -18.908932 0
M  V30 17 O 17.243939 4.969291 -17.840992 0
M  V30 18 C 7.479608 4.250656 -11.293424 0
M  V30 19 C 6.959195 6.205008 -12.844953 0 CFG=2
M  V30 20 C 15.091685 3.100158 -18.405965 0
M  V30 21 C 5.484186 5.811289 -12.897719 0
M  V30 22 N 9.637242 3.264429 -18.912069 0
M  V30 23 C 12.091139 3.916189 -19.174563 0
M  V30 24 N 12.249583 4.735427 -17.942172 0 CFG=2 CHG=1
M  V30 25 C 5.252137 4.318648 -12.574267 0
M  V30 26 C 9.350878 4.343772 -17.940881 0 CFG=1
M  V30 27 C 6.548488 6.669661 -17.091501 0
M  V30 28 C 14.896611 4.580940 -18.060471 0 CFG=2
M  V30 29 O 8.678795 6.386122 -11.092025 0
M  V30 30 C 7.785482 5.638388 -13.995675 0 CFG=1
M  V30 31 C 7.948010 4.174666 -14.362996 0 CFG=2
M  V30 32 O 14.234870 -0.230694 -17.091666 0
M  V30 33 C 15.432934 0.380893 -19.073865 0
M  V30 34 C 8.832361 2.059793 -18.703916 0
M  V30 35 C 15.954052 1.380805 -19.915166 0
M  V30 36 C 7.571800 5.641280 -16.586144 0 CFG=1
M  V30 37 H 6.074235 4.837493 -15.247638 0
M  V30 38 H 6.494094 2.650225 -14.259339 0
M  V30 39 H 9.073862 2.170993 -12.721266 0
M  V30 40 H 7.713700 1.062555 -12.811562 0
M  V30 41 H 8.605107 1.466938 -14.264109 0
M  V30 42 H 6.213757 2.590599 -11.823749 0
M  V30 43 H 9.989534 5.625921 -19.595991 0
M  V30 44 H 9.363728 6.526918 -18.305093 0
M  V30 45 H 7.329469 4.787919 -18.582528 0
M  V30 46 H 7.375928 3.630100 -17.286487 0
M  V30 47 H 14.046454 2.358882 -16.657821 0
M  V30 48 H 16.181738 3.504341 -20.234214 0
M  V30 49 H 13.814478 0.114871 -16.317433 0
M  V30 50 H 6.748971 6.168452 -10.729492 0
M  V30 51 H 11.289754 6.294546 -16.913538 0
M  V30 52 H 11.852974 6.738455 -18.514230 0
M  V30 53 H 13.552967 4.463427 -16.332824 0
M  V30 54 H 13.656287 6.022682 -17.049073 0
M  V30 55 H 11.148323 2.070116 -19.695038 0
M  V30 56 H 11.268015 2.306222 -17.972623 0
M  V30 57 H 7.161843 4.040861 -10.271881 0
M  V30 58 H 8.498797 3.873503 -11.371226 0
M  V30 59 H 7.009757 7.292522 -12.919722 0
M  V30 60 H 5.034812 6.104398 -13.844271 0
M  V30 61 H 4.993215 6.419091 -12.140537 0
M  V30 62 H 11.837340 4.525728 -20.042048 0
M  V30 63 H 12.989758 3.412767 -19.490968 0
M  V30 64 H 4.665511 3.846437 -13.362764 0
M  V30 65 H 4.635110 4.266630 -11.681811 0
M  V30 66 H 9.811612 4.083771 -16.986767 0
M  V30 67 H 5.574131 6.208518 -17.257570 0
M  V30 68 H 6.414504 7.479199 -16.372580 0
M  V30 69 H 6.867692 7.110624 -18.035492 0
M  V30 70 H 14.918046 5.151219 -18.990066 0
M  V30 71 H 8.445110 7.042838 -10.441898 0
M  V30 72 H 8.723489 6.169228 -14.101798 0
M  V30 73 H 8.911587 3.898161 -14.781295 0
M  V30 74 H 15.562273 -0.661075 -19.329746 0
M  V30 75 H 7.775296 2.245108 -18.894828 0
M  V30 76 H 9.125621 1.266868 -19.393454 0
M  V30 77 H 8.941725 1.679389 -17.686753 0
M  V30 78 H 8.497987 6.168311 -16.379420 0
M  V30 79 H 11.804877 4.142820 -17.255946 0
M  V30 END ATOM
M  V30 BEGIN BOND
M  V30 1 1 3 2
M  V30 2 1 4 2
M  V30 3 1 11 5
M  V30 4 2 12 7
M  V30 5 1 14 10
M  V30 6 2 17 10
M  V30 7 1 18 4
M  V30 8 1 18 9
M  V30 9 1 19 9
M  V30 10 1 20 7
M  V30 11 2 20 8
M  V30 12 1 21 19
M  V30 13 1 22 16
M  V30 14 1 23 16
M  V30 15 1 24 11
M  V30 16 1 24 13
M  V30 17 1 24 23
M  V30 18 1 25 4
M  V30 19 1 25 21
M  V30 20 1 26 5
M  V30 21 1 26 6
M  V30 22 1 26 22
M  V30 23 1 28 10
M  V30 24 1 28 13
M  V30 25 1 28 20
M  V30 26 1 29 9
M  V30 27 1 30 1
M  V30 28 1 30 19
M  V30 29 1 31 1
M  V30 30 1 31 2
M  V30 31 1 31 30
M  V30 32 1 32 12
M  V30 33 1 33 12
M  V30 34 1 34 22
M  V30 35 1 35 8
M  V30 36 1 35 15
M  V30 37 2 35 33
M  V30 38 1 36 1
M  V30 39 1 36 6
M  V30 40 1 36 27
M  V30 41 1 1 37 CFG=1
M  V30 42 1 2 38 CFG=3
M  V30 43 1 39 3
M  V30 44 1 40 3
M  V30 45 1 41 3
M  V30 46 1 4 42 CFG=1
M  V30 47 1 43 5
M  V30 48 1 44 5
M  V30 49 1 45 6
M  V30 50 1 46 6
M  V30 51 1 47 7
M  V30 52 1 48 8
M  V30 53 1 49 32
M  V30 54 1 9 50 CFG=1
M  V30 55 1 51 11
M  V30 56 1 52 11
M  V30 57 1 53 13
M  V30 58 1 54 13
M  V30 59 1 55 16
M  V30 60 1 56 16
M  V30 61 1 57 18
M  V30 62 1 58 18
M  V30 63 1 19 59 CFG=1
M  V30 64 1 60 21
M  V30 65 1 61 21
M  V30 66 1 62 23
M  V30 67 1 63 23
M  V30 68 1 64 25
M  V30 69 1 65 25
M  V30 70 1 26 66 CFG=1
M  V30 71 1 67 27
M  V30 72 1 68 27
M  V30 73 1 69 27
M  V30 74 1 28 70 CFG=3
M  V30 75 1 71 29
M  V30 76 1 30 72 CFG=3
M  V30 77 1 31 73 CFG=3
M  V30 78 1 74 33
M  V30 79 1 75 34
M  V30 80 1 76 34
M  V30 81 1 77 34
M  V30 82 1 36 78 CFG=1
M  V30 83 1 24 79 CFG=1
M  V30 END BOND
M  V30 END CTAB
M  END
>  <i_epik_Tot_Q>  (1) 
0

>  <i_epik_Tot_abs_Q>  (1) 
2

>  <i_i_glide_confnum>  (1) 
69

>  <i_i_glide_lignum>  (1) 
133

>  <i_i_glide_posenum>  (1) 
303

>  <i_i_glide_rotatable_bonds>  (1) 
9

>  <i_lp_mmshare_version>  (1) 
72125

>  <i_m_source_file_index>  (1) 
68

>  <i_f3d_flags>  (1) 
0

>  <num_sample>  (1) 
100

>  <b_lp_Chiralities_Consistent>  (1) 
1

>  <r_epik_Charging_Adjusted_Penalty>  (1) 
0.12241089881330544

>  <r_epik_Ionization_Penalty>  (1) 
0.01898901772236716

>  <r_epik_Ionization_Penalty_Charging>  (1) 
0.00080544074301080722

>  <r_epik_Ionization_Penalty_Neutral>  (1) 
0.018183576979356353

>  <r_epik_State_Penalty>  (1) 
0.12160545807029463

>  <r_glide_ring_energy>  (1) 
0.59912657946458703

>  <r_i_docking_score>  (1) 
-4.5275597779031669

>  <r_i_glide_ecoul>  (1) 
-7.4202159955215343

>  <r_i_glide_eff_state_penalty>  (1) 
0.12160545807029463

>  <r_i_glide_einternal>  (1) 
24.725460443841115

>  <r_i_glide_emodel>  (1) 
-22.333561438792792

>  <r_i_glide_emodel_strain>  (1) 
3.4493201178914603

>  <r_i_glide_energy>  (1) 
-34.009531249236545

>  <r_i_glide_erotb>  (1) 
0.48522832276191719

>  <r_i_glide_esite>  (1) 
-0.022818331976582177

>  <r_i_glide_evdw>  (1) 
-26.589315253715007

>  <r_i_glide_gscore>  (1) 
-4.6491652359734612

>  <r_i_glide_gscore_strain>  (1) 
0

>  <r_i_glide_hbond>  (1) 
-0.30286653898659571

>  <r_i_glide_ligand_efficiency>  (1) 
-0.12576554938619908

>  <r_i_glide_ligand_efficiency_ln>  (1) 
-0.98779122300915112

>  <r_i_glide_ligand_efficiency_sa>  (1) 
-0.41526869449049369

>  <r_i_glide_lipo>  (1) 
-1.8187285494382233

>  <r_i_glide_metal>  (1) 
-0

>  <r_i_glide_rewards>  (1) 
-0.5474819763199964

>  <r_lp_Energy>  (1) 
56.91601

>  <r_lp_tautomer_probability>  (1) 
0.99999999999736477

>  <s_epik_cmdline>  (1) 
J2VwaWtfcHl0aG9uJywgJy1waHQnLCAnMS4wJywgJy1waCcsICc3LjQnLCAnLXRuJywgJzgnLCAnLW1hJywgJzUwMCcsICctaW1hZScsICc8aW5maWxlLm1hZT4nLCAnLW9tYWUnLCAnPG91dGZpbGUubWFlPic=

>  <s_epik_input>  (1) 
W0NIM11bQ0BASF0oW0NAQEhdMTIpW0NAQEhdM1tDQEhdKFtDQEhdKFtDQEBIXShbQ0gyXTEpW09IXSlbQ0gyXVtDSDJdMilbQ0BIXTNbQ0BIXShbQ0gzXSlbQ0gyXVtDQEBIXTRbQ0gyXVtDSDJdTihbQ0gyXVtDSDJdTjRbQ0gzXSlbQ0gyXVtDQEBIXShDKD1PKVtPSF0pQyg9W0NIXUM1PU8pW0NIMl1DKEYpPVtDSF01

>  <s_glide_docking_method>  (1) 
confgen

>  <s_i_glide_gridfile>  (1) 
gpcr_drd2_6luq_protein_autoprepared_prepared

>  <s_lp_Force_Field>  (1) 
S-OPLS

>  <s_lp_Variant>  (1) 
DiffSBDD_67_num_sample_100-1

>  <s_m_source_file>  (1) 
generated__ligand_DiffSBDD_2026-05-06_prepared.sdf

>  <GenAI_Model>  (1) 
DiffSBDD

>  <Protein>  (1) 
generic_title2

$$$$
DiffSBDD_8_num_sample_100
     RDKit          3D

  0  0  0  0  0  0  0  0  0  0999 V3000
M  V30 BEGIN CTAB
M  V30 COUNTS 67 70 0 0 1
M  V30 BEGIN ATOM
M  V30 1 C 7.079994 6.484443 -13.237918 0
M  V30 2 C 11.147554 8.018101 -7.527790 0
M  V30 3 C 9.451656 4.476315 -17.261051 0 CFG=1
M  V30 4 C 7.498407 5.941718 -19.592363 0
M  V30 5 O 7.711046 8.321259 -11.891668 0
M  V30 6 N 11.740509 8.566910 -9.826181 0
M  V30 7 C 8.568289 5.125678 -19.508726 0
M  V30 8 O 7.839851 4.300340 -12.678125 0
M  V30 9 C 8.212097 7.114966 -12.428860 0 CFG=1
M  V30 10 C 7.495035 5.118211 -13.796448 0 CFG=2
M  V30 11 C 7.186718 3.858556 -16.647713 0
M  V30 12 C 10.973495 7.833535 -8.920198 0
M  V30 13 O 9.834852 5.369258 -14.455708 0
M  V30 14 C 11.999879 5.956297 -18.533690 0
M  V30 15 C 10.924832 4.004718 -17.167296 0
M  V30 16 O 9.655408 5.289396 -20.325769 0
M  V30 17 C 8.723746 3.971017 -18.527893 0 CFG=2
M  V30 18 O 9.031986 4.896303 -11.945813 0
M  V30 19 C 8.535702 5.205585 -14.956991 0 CFG=1
M  V30 20 C 8.687984 6.141413 -11.330311 0 CFG=1
M  V30 21 O 13.103653 3.851943 -18.147452 0
M  V30 22 C 7.422757 3.314656 -18.051238 0
M  V30 23 C 11.729146 6.463074 -19.966946 0
M  V30 24 C 12.160825 9.022676 -7.008114 0
M  V30 25 C 10.374285 7.271238 -6.619173 0
M  V30 26 C 10.237391 6.588706 -20.329142 0
M  V30 27 C 9.257802 6.148761 -8.473540 0
M  V30 28 O 9.854758 6.745352 -10.763344 0
M  V30 29 C 9.434638 6.339442 -7.091666 0
M  V30 30 C 8.562362 4.101907 -16.043984 0 CFG=2
M  V30 31 C 11.827598 4.425209 -18.351993 0 CFG=2
M  V30 32 C 10.020599 6.904238 -9.397793 0
M  V30 33 H 6.769294 7.150872 -14.043037 0
M  V30 34 H 6.206611 6.351497 -12.596692 0
M  V30 35 H 9.464850 5.565541 -17.300741 0
M  V30 36 H 6.647234 5.814807 -18.940407 0
M  V30 37 H 7.465121 6.744747 -20.314144 0
M  V30 38 H 7.434822 8.169295 -10.978413 0
M  V30 39 H 11.527860 8.543154 -10.812425 0
M  V30 40 H 12.327827 9.326302 -9.511921 0
M  V30 41 H 9.034738 7.368702 -13.091429 0
M  V30 42 H 6.582583 4.683939 -14.203544 0
M  V30 43 H 6.634927 4.796580 -16.706321 0
M  V30 44 H 6.634832 3.154500 -16.028758 0
M  V30 45 H 10.055780 4.639433 -13.891361 0
M  V30 46 H 11.373225 6.509957 -17.836265 0
M  V30 47 H 13.015609 6.241206 -18.257213 0
M  V30 48 H 10.935002 2.917598 -17.083860 0
M  V30 49 H 11.373220 4.378356 -16.248385 0
M  V30 50 H 9.308100 3.200272 -19.031461 0
M  V30 51 H 8.305332 6.132297 -15.484730 0
M  V30 52 H 7.856275 5.989476 -10.646498 0
M  V30 53 H 13.001132 2.917727 -18.049491 0
M  V30 54 H 6.573710 3.473437 -18.717140 0
M  V30 55 H 7.576267 2.236269 -17.988823 0
M  V30 56 H 12.177108 7.451505 -20.065387 0
M  V30 57 H 12.242927 5.830711 -20.691773 0
M  V30 58 H 12.261481 8.965512 -5.924173 0
M  V30 59 H 13.142248 8.854380 -7.452063 0
M  V30 60 H 11.834776 10.033545 -7.247034 0
M  V30 61 H 10.502048 7.412511 -5.556586 0
M  V30 62 H 9.762365 7.282783 -19.632243 0
M  V30 63 H 10.129504 7.016726 -21.326336 0
M  V30 64 H 8.534771 5.428720 -8.818253 0
M  V30 65 H 8.843923 5.769938 -6.391037 0
M  V30 66 H 8.885201 3.153199 -15.631093 0
M  V30 67 H 11.449489 3.976313 -19.269617 0
M  V30 END ATOM
M  V30 BEGIN BOND
M  V30 1 2 7 4
M  V30 2 1 9 1
M  V30 3 1 9 5
M  V30 4 1 10 1
M  V30 5 1 10 8
M  V30 6 2 12 2
M  V30 7 1 12 6
M  V30 8 1 15 3
M  V30 9 1 16 7
M  V30 10 1 17 3
M  V30 11 1 17 7
M  V30 12 1 18 8
M  V30 13 1 19 10
M  V30 14 1 19 13
M  V30 15 1 20 9
M  V30 16 1 20 18
M  V30 17 1 22 11
M  V30 18 1 22 17
M  V30 19 1 23 14
M  V30 20 1 24 2
M  V30 21 1 25 2
M  V30 22 1 26 16
M  V30 23 1 26 23
M  V30 24 1 28 20
M  V30 25 2 29 25
M  V30 26 1 29 27
M  V30 27 1 30 3
M  V30 28 1 30 11
M  V30 29 1 30 19
M  V30 30 1 31 14
M  V30 31 1 31 15
M  V30 32 1 31 21
M  V30 33 1 32 12
M  V30 34 2 32 27
M  V30 35 1 32 28
M  V30 36 1 33 1
M  V30 37 1 34 1
M  V30 38 1 3 35 CFG=3
M  V30 39 1 36 4
M  V30 40 1 37 4
M  V30 41 1 38 5
M  V30 42 1 39 6
M  V30 43 1 40 6
M  V30 44 1 9 41 CFG=3
M  V30 45 1 10 42 CFG=3
M  V30 46 1 43 11
M  V30 47 1 44 11
M  V30 48 1 45 13
M  V30 49 1 46 14
M  V30 50 1 47 14
M  V30 51 1 48 15
M  V30 52 1 49 15
M  V30 53 1 17 50 CFG=3
M  V30 54 1 19 51 CFG=3
M  V30 55 1 20 52 CFG=1
M  V30 56 1 53 21
M  V30 57 1 54 22
M  V30 58 1 55 22
M  V30 59 1 56 23
M  V30 60 1 57 23
M  V30 61 1 58 24
M  V30 62 1 59 24
M  V30 63 1 60 24
M  V30 64 1 61 25
M  V30 65 1 62 26
M  V30 66 1 63 26
M  V30 67 1 64 27
M  V30 68 1 65 29
M  V30 69 1 30 66 CFG=1
M  V30 70 1 31 67 CFG=3
M  V30 END BOND
M  V30 END CTAB
M  END
>  <i_epik_Tot_Q>  (1) 
0

>  <i_epik_Tot_abs_Q>  (1) 
0

>  <i_i_glide_confnum>  (1) 
15

>  <i_i_glide_lignum>  (1) 
14

>  <i_i_glide_posenum>  (1) 
274

>  <i_i_glide_rotatable_bonds>  (1) 
7

>  <i_lp_mmshare_version>  (1) 
72125

>  <i_m_source_file_index>  (1) 
9

>  <i_f3d_flags>  (1) 
0

>  <num_sample>  (1) 
100

>  <b_lp_Chiralities_Consistent>  (1) 
1

>  <r_epik_Charging_Adjusted_Penalty>  (1) 
0

>  <r_epik_Ionization_Penalty>  (1) 
0.0024140143781195595

>  <r_epik_Ionization_Penalty_Charging>  (1) 
0

>  <r_epik_Ionization_Penalty_Neutral>  (1) 
0.0024140143781195595

>  <r_epik_State_Penalty>  (1) 
-0

>  <r_glide_ring_energy>  (1) 
1.5767807932002511

>  <r_i_docking_score>  (1) 
-4.5176066204992704

>  <r_i_glide_ecoul>  (1) 
-6.706047844314706

>  <r_i_glide_eff_state_penalty>  (1) 
-0

>  <r_i_glide_einternal>  (1) 
12.191159189289507

>  <r_i_glide_emodel>  (1) 
-34.218481239151565

>  <r_i_glide_emodel_strain>  (1) 
3.5013525096160691

>  <r_i_glide_energy>  (1) 
-35.196777648092741

>  <r_i_glide_erotb>  (1) 
0.39668203270713775

>  <r_i_glide_esite>  (1) 
-0.063663921318540553

>  <r_i_glide_evdw>  (1) 
-28.490729803778034

>  <r_i_glide_gscore>  (1) 
-4.5176066204992704

>  <r_i_glide_gscore_strain>  (1) 
0

>  <r_i_glide_hbond>  (1) 
-0.21844235253935376

>  <r_i_glide_ligand_efficiency>  (1) 
-0.1411752068906022

>  <r_i_glide_ligand_efficiency_ln>  (1) 
-1.0116152676352903

>  <r_i_glide_ligand_efficiency_sa>  (1) 
-0.44820334385994032

>  <r_i_glide_lipo>  (1) 
-1.4410882958457381

>  <r_i_glide_metal>  (1) 
-0

>  <r_i_glide_rewards>  (1) 
-0.76065041666666766

>  <r_lp_Energy>  (1) 
35.494580999999997

>  <r_lp_tautomer_probability>  (1) 
1

>  <s_epik_Chemistry_Notes>  (1) 
This compound contains an acetal/aminal-like group ( X-CH(R)-Y where X, Y are N, S, or O) that may be acid/base labile, releasing an aldehyde.

>  <s_epik_cmdline>  (1) 
J2VwaWtfcHl0aG9uJywgJy1waHQnLCAnMS4wJywgJy1waCcsICc3LjQnLCAnLXRuJywgJzgnLCAnLW1hJywgJzUwMCcsICctaW1hZScsICc8aW5maWxlLm1hZT4nLCAnLW9tYWUnLCAnPG91dGZpbGUubWFlPic=

>  <s_epik_input>  (1) 
W0NIM11jMWMoW05IMl0pYyhbY0hdW2NIXVtjSF0xKU9bQ0BASF0yT09bQ0BASF0oW0NIMl1bQ0BIXTJbT0hdKVtDQEBIXShbT0hdKVtDQEhdM1tDSDJdW0NIMl1bQ0BIXShbQ0BASF0zNClDKD1bQ0gyXSlPW0NIMl1bQ0gyXVtDSDJdW0NASF0oW0NIMl00KVtPSF0=

>  <s_glide_docking_method>  (1) 
confgen

>  <s_i_glide_gridfile>  (1) 
gpcr_drd2_6luq_protein_autoprepared_prepared

>  <s_lp_Force_Field>  (1) 
S-OPLS

>  <s_lp_Variant>  (1) 
DiffSBDD_8_num_sample_100-1

>  <s_m_source_file>  (1) 
generated__ligand_DiffSBDD_2026-05-06_prepared.sdf

>  <GenAI_Model>  (1) 
DiffSBDD

>  <Protein>  (1) 
generic_title2

$$$$
DiffSBDD_1_num_sample_100
     RDKit          3D

  0  0  0  0  0  0  0  0  0  0999 V3000
M  V30 BEGIN CTAB
M  V30 COUNTS 36 37 0 0 1
M  V30 BEGIN ATOM
M  V30 1 C 9.157152 6.280868 -10.923377 0
M  V30 2 C 7.914967 4.788784 -14.377806 0 CFG=2
M  V30 3 C 7.420242 6.104872 -15.003836 0 CFG=1
M  V30 4 Cl 6.310990 5.831628 -16.372077 0
M  V30 5 O 5.834886 6.169294 -11.091680 0
M  V30 6 C 6.814329 7.103305 -14.009657 0
M  V30 7 C 5.834857 3.996052 -13.361362 0
M  V30 8 C 7.709693 7.289605 -12.774450 0
M  V30 9 C 6.329611 3.963167 -11.923714 0
M  V30 10 C 8.114074 5.966625 -12.051894 0 CFG=1
M  V30 11 O 10.537984 8.969299 -9.104724 0
M  V30 12 O 6.908085 3.787416 -14.264134 0
M  V30 13 P 11.182547 7.744958 -9.617914 0
M  V30 14 C 8.767348 5.027754 -13.103811 0
M  V30 15 O 12.634835 7.769322 -9.891485 0 CHG=-1
M  V30 16 C 10.325840 7.250134 -11.217608 0
M  V30 17 C 6.895642 5.270330 -11.338695 0 CFG=1
M  V30 18 H 9.570656 5.343243 -10.549479 0
M  V30 19 H 8.634836 6.707614 -10.070515 0
M  V30 20 H 8.593478 4.346841 -15.108479 0
M  V30 21 H 8.295866 6.569283 -15.439377 0
M  V30 22 H 6.179662 6.838938 -10.490356 0
M  V30 23 H 6.708758 8.058295 -14.524062 0
M  V30 24 H 5.806541 6.836199 -13.706861 0
M  V30 25 H 5.170937 3.142555 -13.491637 0
M  V30 26 H 5.219674 4.859178 -13.592619 0
M  V30 27 H 8.602383 7.785661 -13.133448 0
M  V30 28 H 7.260482 8.000671 -12.079411 0
M  V30 29 H 5.518669 3.629021 -11.275601 0
M  V30 30 H 7.082112 3.180370 -11.891674 0
M  V30 31 H 9.061910 4.076710 -12.659284 0
M  V30 32 H 9.704067 5.483522 -13.427149 0
M  V30 33 H 11.032041 6.809044 -11.920090 0
M  V30 34 H 9.977023 8.181213 -11.651768 0
M  V30 35 H 7.213580 4.972226 -10.338193 0
M  V30 36 H 10.919616 6.684299 -8.703086 0
M  V30 END ATOM
M  V30 BEGIN BOND
M  V30 1 1 3 2
M  V30 2 1 4 3
M  V30 3 1 6 3
M  V30 4 1 8 6
M  V30 5 1 9 7
M  V30 6 1 10 1 CFG=1
M  V30 7 1 10 8
M  V30 8 1 12 2
M  V30 9 1 12 7
M  V30 10 2 13 11
M  V30 11 1 14 2
M  V30 12 1 14 10
M  V30 13 1 15 13
M  V30 14 1 16 1
M  V30 15 1 16 13
M  V30 16 1 17 5
M  V30 17 1 17 9
M  V30 18 1 17 10
M  V30 19 1 18 1
M  V30 20 1 19 1
M  V30 21 1 2 20 CFG=3
M  V30 22 1 3 21 CFG=3
M  V30 23 1 22 5
M  V30 24 1 23 6
M  V30 25 1 24 6
M  V30 26 1 25 7
M  V30 27 1 26 7
M  V30 28 1 27 8
M  V30 29 1 28 8
M  V30 30 1 29 9
M  V30 31 1 30 9
M  V30 32 1 31 14
M  V30 33 1 32 14
M  V30 34 1 33 16
M  V30 35 1 34 16
M  V30 36 1 17 35 CFG=1
M  V30 37 1 36 13
M  V30 END BOND
M  V30 END CTAB
M  END
>  <i_epik_Tot_Q>  (1) 
-1

>  <i_epik_Tot_abs_Q>  (1) 
1

>  <i_i_glide_confnum>  (1) 
2

>  <i_i_glide_lignum>  (1) 
3

>  <i_i_glide_posenum>  (1) 
362

>  <i_i_glide_rotatable_bonds>  (1) 
4

>  <i_lp_mmshare_version>  (1) 
72125

>  <i_m_source_file_index>  (1) 
2

>  <i_f3d_flags>  (1) 
0

>  <num_sample>  (1) 
100

>  <b_lp_Chiralities_Consistent>  (1) 
1

>  <r_epik_Charging_Adjusted_Penalty>  (1) 
1.9889919217114435e-05

>  <r_epik_Ionization_Penalty>  (1) 
1.9962460467374035e-05

>  <r_epik_Ionization_Penalty_Charging>  (1) 
1.9889919217114435e-05

>  <r_epik_Ionization_Penalty_Neutral>  (1) 
7.2541250259600902e-08

>  <r_epik_State_Penalty>  (1) 
-0

>  <r_glide_ring_energy>  (1) 
0

>  <r_i_docking_score>  (1) 
-4.5164493815003759

>  <r_i_glide_ecoul>  (1) 
-5.6463704832993606

>  <r_i_glide_eff_state_penalty>  (1) 
-0

>  <r_i_glide_einternal>  (1) 
7.7702798354905402

>  <r_i_glide_emodel>  (1) 
-28.49941756450972

>  <r_i_glide_emodel_strain>  (1) 
0.1379804034375951

>  <r_i_glide_energy>  (1) 
-26.597397102781141

>  <r_i_glide_erotb>  (1) 
0.45571271474972769

>  <r_i_glide_esite>  (1) 
0

>  <r_i_glide_evdw>  (1) 
-20.95102661948178

>  <r_i_glide_gscore>  (1) 
-4.5164493815003759

>  <r_i_glide_gscore_strain>  (1) 
0

>  <r_i_glide_hbond>  (1) 
-0.16

>  <r_i_glide_ligand_efficiency>  (1) 
-0.26567349302943388

>  <r_i_glide_ligand_efficiency_ln>  (1) 
-1.1782410672506882

>  <r_i_glide_ligand_efficiency_sa>  (1) 
-0.68312136175245242

>  <r_i_glide_lipo>  (1) 
-0.97659114179431561

>  <r_i_glide_metal>  (1) 
-0

>  <r_i_glide_rewards>  (1) 
-1.9410640509867951

>  <r_lp_Energy>  (1) 
23.177799999999998

>  <r_lp_tautomer_probability>  (1) 
1

>  <s_epik_cmdline>  (1) 
J2VwaWtfcHl0aG9uJywgJy1waHQnLCAnMS4wJywgJy1waCcsICc3LjQnLCAnLXRuJywgJzgnLCAnLW1hJywgJzUwMCcsICctaW1hZScsICc8aW5maWxlLm1hZT4nLCAnLW9tYWUnLCAnPG91dGZpbGUubWFlPic=

>  <s_epik_input>  (1) 
W09IXVAoW09IXSlbQ0gyXVtDSDJdW0NAQF0xMltDSDJdW0NIMl1bQ0BIXShDbClbQ0BASF0oW0NIMl0xKU9bQ0gyXVtDSDJdW0NAQEhdMltPSF0=

>  <s_glide_docking_method>  (1) 
confgen

>  <s_i_glide_gridfile>  (1) 
gpcr_drd2_6luq_protein_autoprepared_prepared

>  <s_lp_Force_Field>  (1) 
S-OPLS

>  <s_lp_Variant>  (1) 
DiffSBDD_1_num_sample_100-1

>  <s_m_source_file>  (1) 
generated__ligand_DiffSBDD_2026-05-06_prepared.sdf

>  <GenAI_Model>  (1) 
DiffSBDD

>  <Protein>  (1) 
generic_title2

$$$$
DiffSBDD_70_num_sample_100
     RDKit          3D

  0  0  0  0  0  0  0  0  0  0999 V3000
M  V30 BEGIN CTAB
M  V30 COUNTS 76 78 0 0 1
M  V30 BEGIN ATOM
M  V30 1 C 7.197009 5.038394 -18.027084 0 CFG=1
M  V30 2 C 6.978838 4.573201 -20.400207 0
M  V30 3 C 8.063487 4.446105 -15.835171 0 CFG=1
M  V30 4 C 5.912468 4.520560 -11.218842 0
M  V30 5 C 6.983886 1.799208 -14.462602 0
M  V30 6 Cl 6.508020 0.169276 -13.942728 0
M  V30 7 C 7.272935 4.453291 -10.515327 0
M  V30 8 C 6.617245 6.047778 -20.187617 0
M  V30 9 C 9.922702 7.200155 -9.834468 0
M  V30 10 C 6.970791 6.378090 -18.733776 0
M  V30 11 C 9.199012 5.828257 -9.681493 0 CFG=1
M  V30 12 C 9.371531 4.722194 -15.087444 0
M  V30 13 C 6.830592 4.792588 -14.963884 0
M  V30 14 C 9.832536 8.302260 -6.764003 0
M  V30 15 C 6.041028 5.075756 -12.656656 0 CFG=1
M  V30 16 C 11.108682 7.401464 -8.881170 0 CFG=2
M  V30 17 O 6.336542 2.174296 -18.642900 0
M  V30 18 O 10.634890 9.368947 -6.291701 0
M  V30 19 C 10.717312 7.204781 -7.408434 0 CFG=2
M  V30 20 C 6.612974 6.493129 -12.469237 0
M  V30 21 C 7.740005 4.120213 -19.140764 0 CFG=2
M  V30 22 C 6.358258 2.831077 -13.520031 0
M  V30 23 C 8.907278 5.557356 -8.186600 0
M  V30 24 O 8.125799 5.286733 -16.978232 0
M  V30 25 C 10.107909 5.813463 -7.272425 0
M  V30 26 C 7.661651 2.595082 -18.878966 0
M  V30 27 C 7.999525 6.419905 -11.819250 0
M  V30 28 O 12.634606 8.569507 -10.195487 0
M  V30 29 O 8.240408 1.908335 -19.962099 0
M  V30 30 F 11.834827 7.126723 -6.691820 0
M  V30 31 N 7.938233 5.769292 -10.478075 0 CFG=1 CHG=1
M  V30 32 N 6.817970 4.230114 -13.593290 0
M  V30 33 O 11.679460 8.681530 -9.099500 0
M  V30 34 H 6.235323 4.678497 -17.663514 0
M  V30 35 H 6.059909 3.998317 -20.521928 0
M  V30 36 H 7.572459 4.428824 -21.303595 0
M  V30 37 H 8.060640 3.413866 -16.157799 0
M  V30 38 H 5.434869 3.545125 -11.182952 0
M  V30 39 H 5.246113 5.165199 -10.642930 0
M  V30 40 H 6.634852 1.916029 -15.487424 0
M  V30 41 H 8.072963 1.836876 -14.440117 0
M  V30 42 H 7.943790 3.769361 -11.033669 0
M  V30 43 H 7.096844 4.081821 -9.508600 0
M  V30 44 H 5.556051 6.208978 -20.375166 0
M  V30 45 H 7.169327 6.695195 -20.870149 0
M  V30 46 H 9.215677 8.017570 -9.683630 0
M  V30 47 H 10.310843 7.305141 -10.848408 0
M  V30 48 H 6.203870 6.975774 -18.239670 0
M  V30 49 H 7.892103 6.961686 -18.720095 0
M  V30 50 H 9.839054 5.035911 -10.060944 0
M  V30 51 H 9.434869 4.169284 -14.152305 0
M  V30 52 H 10.241149 4.480420 -15.699572 0
M  V30 53 H 9.446925 5.769283 -14.824725 0
M  V30 54 H 5.895485 4.569343 -15.467088 0
M  V30 55 H 6.846050 5.875700 -14.937043 0
M  V30 56 H 9.068437 8.671154 -7.450302 0
M  V30 57 H 9.304975 7.905282 -5.896985 0
M  V30 58 H 5.034438 5.174262 -13.061252 0
M  V30 59 H 11.834778 6.630505 -9.111482 0
M  V30 60 H 6.352479 1.253867 -18.425681 0
M  V30 61 H 11.394047 8.993554 -5.871031 0
M  V30 62 H 6.653476 7.083365 -13.380604 0
M  V30 63 H 5.950525 7.069059 -11.820339 0
M  V30 64 H 8.790284 4.382903 -19.283417 0
M  V30 65 H 6.611285 2.449615 -12.532332 0
M  V30 66 H 5.271492 2.786432 -13.561937 0
M  V30 67 H 8.077439 6.169294 -7.851691 0
M  V30 68 H 8.596822 4.525198 -8.033926 0
M  V30 69 H 9.814439 5.701024 -6.233906 0
M  V30 70 H 10.875936 5.069663 -7.491692 0
M  V30 71 H 8.254555 2.334646 -18.004394 0
M  V30 72 H 8.332824 7.453494 -11.748708 0
M  V30 73 H 8.711897 5.895607 -12.455174 0
M  V30 74 H 13.409230 8.949316 -9.802402 0
M  V30 75 H 7.822740 2.204421 -20.756754 0
M  V30 76 H 7.327507 6.406687 -9.955724 0
M  V30 END ATOM
M  V30 BEGIN BOND
M  V30 1 1 6 5
M  V30 2 1 7 4
M  V30 3 1 8 2
M  V30 4 1 10 1
M  V30 5 1 10 8
M  V30 6 1 11 9
M  V30 7 1 12 3
M  V30 8 1 13 3
M  V30 9 1 15 4
M  V30 10 1 16 9
M  V30 11 1 18 14
M  V30 12 1 19 14
M  V30 13 1 19 16
M  V30 14 1 20 15
M  V30 15 1 21 1
M  V30 16 1 21 2
M  V30 17 1 22 5
M  V30 18 1 23 11
M  V30 19 1 24 1
M  V30 20 1 24 3
M  V30 21 1 25 19
M  V30 22 1 25 23
M  V30 23 1 26 17
M  V30 24 1 26 21
M  V30 25 1 27 20
M  V30 26 1 29 26
M  V30 27 1 19 30 CFG=1
M  V30 28 1 31 7
M  V30 29 1 31 11
M  V30 30 1 31 27
M  V30 31 1 32 13
M  V30 32 1 32 15
M  V30 33 1 32 22
M  V30 34 1 33 16
M  V30 35 1 33 28
M  V30 36 1 1 34 CFG=1
M  V30 37 1 35 2
M  V30 38 1 36 2
M  V30 39 1 3 37 CFG=3
M  V30 40 1 38 4
M  V30 41 1 39 4
M  V30 42 1 40 5
M  V30 43 1 41 5
M  V30 44 1 42 7
M  V30 45 1 43 7
M  V30 46 1 44 8
M  V30 47 1 45 8
M  V30 48 1 46 9
M  V30 49 1 47 9
M  V30 50 1 48 10
M  V30 51 1 49 10
M  V30 52 1 11 50 CFG=3
M  V30 53 1 51 12
M  V30 54 1 52 12
M  V30 55 1 53 12
M  V30 56 1 54 13
M  V30 57 1 55 13
M  V30 58 1 56 14
M  V30 59 1 57 14
M  V30 60 1 15 58 CFG=3
M  V30 61 1 16 59 CFG=3
M  V30 62 1 60 17
M  V30 63 1 61 18
M  V30 64 1 62 20
M  V30 65 1 63 20
M  V30 66 1 21 64 CFG=3
M  V30 67 1 65 22
M  V30 68 1 66 22
M  V30 69 1 67 23
M  V30 70 1 68 23
M  V30 71 1 69 25
M  V30 72 1 70 25
M  V30 73 1 71 26
M  V30 74 1 72 27
M  V30 75 1 73 27
M  V30 76 1 74 28
M  V30 77 1 75 29
M  V30 78 1 31 76 CFG=1
M  V30 END BOND
M  V30 END CTAB
M  END
>  <i_epik_Tot_Q>  (1) 
1

>  <i_epik_Tot_abs_Q>  (1) 
1

>  <i_i_glide_confnum>  (1) 
4285

>  <i_i_glide_lignum>  (1) 
141

>  <i_i_glide_posenum>  (1) 
400

>  <i_i_glide_rotatable_bonds>  (1) 
15

>  <i_lp_mmshare_version>  (1) 
72125

>  <i_m_source_file_index>  (1) 
71

>  <i_f3d_flags>  (1) 
0

>  <num_sample>  (1) 
100

>  <b_lp_Chiralities_Consistent>  (1) 
1

>  <r_epik_Charging_Adjusted_Penalty>  (1) 
0.025762522161214964

>  <r_epik_Ionization_Penalty>  (1) 
0.015537266588199847

>  <r_epik_Ionization_Penalty_Charging>  (1) 
0.0050933563181465155

>  <r_epik_Ionization_Penalty_Neutral>  (1) 
0.010443910270053331

>  <r_epik_State_Penalty>  (1) 
0.020669165843068448

>  <r_glide_ring_energy>  (1) 
0

>  <r_i_docking_score>  (1) 
-4.5160051689073359

>  <r_i_glide_ecoul>  (1) 
-9.5604279238102521

>  <r_i_glide_eff_state_penalty>  (1) 
0.020669165843068448

>  <r_i_glide_einternal>  (1) 
27.001740901212177

>  <r_i_glide_emodel>  (1) 
-39.675278143040629

>  <r_i_glide_emodel_strain>  (1) 
1.7302108900512252

>  <r_i_glide_energy>  (1) 
-40.860444145298302

>  <r_i_glide_erotb>  (1) 
0.82250602570520104

>  <r_i_glide_esite>  (1) 
-0.10000000000000001

>  <r_i_glide_evdw>  (1) 
-31.30001622148805

>  <r_i_glide_gscore>  (1) 
-4.5366743347504048

>  <r_i_glide_gscore_strain>  (1) 
0

>  <r_i_glide_hbond>  (1) 
-0.3366036003640534

>  <r_i_glide_ligand_efficiency>  (1) 
-0.13684864148204048

>  <r_i_glide_ligand_efficiency_ln>  (1) 
-1.004336166941638

>  <r_i_glide_ligand_efficiency_sa>  (1) 
-0.43894671556693582

>  <r_i_glide_lipo>  (1) 
-1.2252649235398496

>  <r_i_glide_metal>  (1) 
-0

>  <r_i_glide_rewards>  (1) 
-0.69824683690576261

>  <r_lp_Energy>  (1) 
61.015052999999995

>  <s_epik_Chemistry_Notes>  (1) 
This compound contains an acetal/aminal-like group ( X-CH(R)-Y where X, Y are N, S, or O) that may be acid/base labile, releasing an aldehyde.

>  <s_epik_cmdline>  (1) 
J2VwaWtfcHl0aG9uJywgJy1waHQnLCAnMS4wJywgJy1waCcsICc3LjQnLCAnLXRuJywgJzgnLCAnLW1hJywgJzUwMCcsICctaW1hZScsICc8aW5maWxlLm1hZT4nLCAnLW9tYWUnLCAnPG91dGZpbGUubWFlPic=

>  <s_epik_input>  (1) 
W09IXVtDSF0oW09IXSlbQ0BIXTFbQ0gyXVtDSDJdW0NIMl1bQ0BASF0xT1tDQEBIXShbQ0gzXSlbQ0gyXU4oW0NIMl1bQ0gyXUNsKVtDSF0yW0NIMl1bQ0gyXU4oW0NIMl1bQ0gyXTIpW0NASF0oW0NIMl1bQ0gyXTMpW0NIMl1bQ0BASF0oT1tPSF0pW0NAQF0zKEYpW0NIMl1bT0hd

>  <s_glide_docking_method>  (1) 
confgen

>  <s_i_glide_gridfile>  (1) 
gpcr_drd2_6luq_protein_autoprepared_prepared

>  <s_lp_Force_Field>  (1) 
S-OPLS

>  <s_lp_Variant>  (1) 
DiffSBDD_70_num_sample_100-1

>  <s_m_source_file>  (1) 
generated__ligand_DiffSBDD_2026-05-06_prepared.sdf

>  <GenAI_Model>  (1) 
DiffSBDD

>  <Protein>  (1) 
generic_title2

$$$$
DiffSBDD_28_num_sample_100
     RDKit          3D

  0  0  0  0  0  0  0  0  0  0999 V3000
M  V30 BEGIN CTAB
M  V30 COUNTS 42 43 0 0 1
M  V30 BEGIN ATOM
M  V30 1 C 12.022648 9.073816 -3.037296 0
M  V30 2 C 8.469166 4.815804 -12.041174 0
M  V30 3 C 12.042201 9.015155 -4.569140 0
M  V30 4 N 10.445081 6.565602 -7.126189 0
M  V30 5 C 11.524585 6.593664 -2.896025 0
M  V30 6 C 10.234839 6.526993 -8.401162 0
M  V30 7 C 11.203220 6.658629 -4.382935 0
M  V30 8 O 10.477113 7.506626 -10.570600 0
M  V30 9 C 8.210930 5.634485 -9.739404 0
M  V30 10 C 6.351401 4.459490 -10.829304 0
M  V30 11 C 9.549562 5.323813 -9.048869 0
M  V30 12 C 8.568834 3.536425 -12.878521 0
M  V30 13 C 11.460503 8.697997 -7.489516 0
M  V30 14 N 11.272062 8.781616 -8.818980 0 CHG=-1
M  V30 15 N 7.823378 4.591908 -10.720842 0 CFG=1 CHG=1
M  V30 16 C 12.437576 7.734826 -2.435001 0
M  V30 17 C 10.680423 7.676247 -9.368052 0
M  V30 18 C 11.117340 7.690185 -6.603714 0
M  V30 19 C 11.434839 7.740163 -5.167526 0
M  V30 20 H 12.695119 9.854168 -2.691674 0
M  V30 21 H 11.034842 9.369295 -2.688787 0
M  V30 22 H 7.930414 5.590774 -12.588974 0
M  V30 23 H 9.482292 5.196817 -11.903374 0
M  V30 24 H 13.070732 9.105909 -4.914714 0
M  V30 25 H 11.507668 9.888924 -4.943433 0
M  V30 26 H 10.602700 6.569302 -2.318100 0
M  V30 27 H 12.027496 5.650528 -2.692758 0
M  V30 28 H 10.774981 5.769301 -4.813058 0
M  V30 29 H 7.449166 5.745520 -8.966260 0
M  V30 30 H 8.234841 6.569300 -10.291668 0
M  V30 31 H 5.885481 5.417410 -11.066327 0
M  V30 32 H 6.060731 3.740705 -11.594028 0
M  V30 33 H 5.937663 4.096815 -9.891668 0
M  V30 34 H 10.234838 4.887565 -9.762759 0
M  V30 35 H 9.392631 4.555329 -8.291667 0
M  V30 36 H 9.034828 3.769303 -13.835266 0
M  V30 37 H 9.177658 2.780267 -12.380394 0
M  V30 38 H 7.595111 3.099528 -13.096093 0
M  V30 39 H 11.999843 9.564430 -7.056157 0
M  V30 40 H 13.450772 7.513127 -2.758863 0
M  V30 41 H 12.465846 7.796843 -1.349178 0
M  V30 42 H 8.171999 3.715382 -10.360308 0
M  V30 END ATOM
M  V30 BEGIN BOND
M  V30 1 1 3 1
M  V30 2 2 6 4
M  V30 3 1 7 5
M  V30 4 1 11 6
M  V30 5 1 11 9
M  V30 6 1 12 2
M  V30 7 1 14 13
M  V30 8 1 15 2
M  V30 9 1 15 9
M  V30 10 1 15 10
M  V30 11 1 16 1
M  V30 12 1 16 5
M  V30 13 1 17 6
M  V30 14 2 17 8
M  V30 15 1 17 14
M  V30 16 1 18 4
M  V30 17 2 18 13
M  V30 18 1 19 3
M  V30 19 2 19 7
M  V30 20 1 19 18
M  V30 21 1 20 1
M  V30 22 1 21 1
M  V30 23 1 22 2
M  V30 24 1 23 2
M  V30 25 1 24 3
M  V30 26 1 25 3
M  V30 27 1 26 5
M  V30 28 1 27 5
M  V30 29 1 28 7
M  V30 30 1 29 9
M  V30 31 1 30 9
M  V30 32 1 31 10
M  V30 33 1 32 10
M  V30 34 1 33 10
M  V30 35 1 34 11
M  V30 36 1 35 11
M  V30 37 1 36 12
M  V30 38 1 37 12
M  V30 39 1 38 12
M  V30 40 1 39 13
M  V30 41 1 40 16
M  V30 42 1 41 16
M  V30 43 1 15 42 CFG=1
M  V30 END BOND
M  V30 END CTAB
M  END
>  <i_epik_Tot_Q>  (1) 
0

>  <i_epik_Tot_abs_Q>  (1) 
2

>  <i_i_glide_confnum>  (1) 
36

>  <i_i_glide_lignum>  (1) 
49

>  <i_i_glide_posenum>  (1) 
70

>  <i_i_glide_rotatable_bonds>  (1) 
5

>  <i_lp_mmshare_version>  (1) 
72125

>  <i_m_source_file_index>  (1) 
29

>  <i_f3d_flags>  (1) 
0

>  <num_sample>  (1) 
100

>  <b_lp_Chiralities_Consistent>  (1) 
1

>  <r_epik_Charging_Adjusted_Penalty>  (1) 
1.2889852773217638

>  <r_epik_Ionization_Penalty>  (1) 
1.2889869126975093

>  <r_epik_Ionization_Penalty_Charging>  (1) 
0.026956894772998535

>  <r_epik_Ionization_Penalty_Neutral>  (1) 
1.2620300179245107

>  <r_epik_State_Penalty>  (1) 
1.2620283825487653

>  <r_glide_ring_energy>  (1) 
0

>  <r_i_docking_score>  (1) 
-4.514029963714969

>  <r_i_glide_ecoul>  (1) 
-3.6598837394372499

>  <r_i_glide_eff_state_penalty>  (1) 
1.2620283825487653

>  <r_i_glide_einternal>  (1) 
4.0190140752996859

>  <r_i_glide_emodel>  (1) 
-42.012446657821229

>  <r_i_glide_emodel_strain>  (1) 
0.12372331634118439

>  <r_i_glide_energy>  (1) 
-31.695592300128105

>  <r_i_glide_erotb>  (1) 
1.0375715866235848

>  <r_i_glide_esite>  (1) 
-0.022080421772718725

>  <r_i_glide_evdw>  (1) 
-28.035708560690853

>  <r_i_glide_gscore>  (1) 
-5.776058346263734

>  <r_i_glide_gscore_strain>  (1) 
0

>  <r_i_glide_hbond>  (1) 
0

>  <r_i_glide_ligand_efficiency>  (1) 
-0.23758052440605101

>  <r_i_glide_ligand_efficiency_ln>  (1) 
-1.1444035482756785

>  <r_i_glide_ligand_efficiency_sa>  (1) 
-0.63396026302933084

>  <r_i_glide_lipo>  (1) 
-2.43294885858518

>  <r_i_glide_metal>  (1) 
-0

>  <r_i_glide_rewards>  (1) 
-2.4078326635792897

>  <r_lp_Energy>  (1) 
33.608792999999999

>  <s_epik_cmdline>  (1) 
J2VwaWtfcHl0aG9uJywgJy1waHQnLCAnMS4wJywgJy1waCcsICc3LjQnLCAnLXRuJywgJzgnLCAnLW1hJywgJzUwMCcsICctaW1hZScsICc8aW5maWxlLm1hZT4nLCAnLW9tYWUnLCAnPG91dGZpbGUubWFlPic=

>  <s_epik_input>  (1) 
W0NIMl0xW0NIMl1bQ0gyXVtDSDJdW0NIXT1DMWMoW2NIXVtuSF1jMj1PKW5jMltDSDJdW0NIMl1OKFtDSDNdKVtDSDJdW0NIM10=

>  <s_glide_docking_method>  (1) 
confgen

>  <s_i_glide_gridfile>  (1) 
gpcr_drd2_6luq_protein_autoprepared_prepared

>  <s_lp_Force_Field>  (1) 
S-OPLS

>  <s_lp_Variant>  (1) 
DiffSBDD_28_num_sample_100-3

>  <s_m_source_file>  (1) 
generated__ligand_DiffSBDD_2026-05-06_prepared.sdf

>  <GenAI_Model>  (1) 
DiffSBDD

>  <Protein>  (1) 
generic_title2

$$$$
DiffSBDD_81_num_sample_100
     RDKit          3D

  0  0  0  0  0  0  0  0  0  0999 V3000
M  V30 BEGIN CTAB
M  V30 COUNTS 65 67 0 0 1
M  V30 BEGIN ATOM
M  V30 1 C 7.192990 2.954654 -14.475005 0 CFG=1
M  V30 2 C 9.315165 5.775263 -10.635047 0 CFG=1
M  V30 3 C 12.345480 4.005406 -21.265286 0
M  V30 4 C 8.041913 1.325261 -17.316540 0 CFG=1
M  V30 5 O 8.467656 5.660796 -13.780798 0
M  V30 6 O 6.026415 4.135700 -11.376734 0
M  V30 7 C 10.245239 0.764582 -18.303892 0
M  V30 8 N 9.403187 1.725669 -17.761618 0
M  V30 9 C 9.834417 5.027898 -11.900525 0
M  V30 10 C 8.808852 4.758472 -13.016458 0
M  V30 11 C 11.693462 8.752512 -9.483390 0
M  V30 12 S 12.448493 2.286051 -21.117873 0
M  V30 13 C 11.283442 7.366167 -9.994024 0
M  V30 14 C 11.094280 3.892723 -17.740000 0
M  V30 15 C 8.120668 0.978551 -15.794141 0 CFG=2
M  V30 16 C 11.864117 2.340970 -19.482766 0
M  V30 17 C 9.742408 3.179286 -17.525591 0
M  V30 18 O 9.872740 -0.394970 -18.486992 0
M  V30 19 C 5.864935 3.769270 -12.556808 0
M  V30 20 N 6.933813 3.366891 -13.266010 0
M  V30 21 C 8.236644 3.354018 -13.128244 0 CFG=1
M  V30 22 C 6.942011 2.297445 -17.795459 0
M  V30 23 O 8.234844 -0.413898 -15.651352 0
M  V30 24 C 11.698046 1.133734 -18.660512 0
M  V30 25 O 5.834868 0.969154 -15.248479 0
M  V30 26 O 4.742991 3.769274 -13.092151 0 CHG=-1
M  V30 27 C 7.076586 1.448473 -14.771590 0 CFG=2
M  V30 28 C 11.881829 4.574445 -20.107629 0
M  V30 29 C 9.826317 7.237895 -10.488810 0
M  V30 30 N 7.845597 5.769187 -10.560585 0 CHG=1
M  V30 31 C 5.086571 0.272140 -14.266233 0
M  V30 32 C 11.606741 3.603441 -19.085543 0
M  V30 33 H 7.039734 3.675913 -15.270579 0
M  V30 34 H 9.644289 5.216914 -9.758322 0
M  V30 35 H 12.628998 4.492130 -22.186345 0
M  V30 36 H 7.740738 0.409850 -17.829197 0
M  V30 37 H 10.234009 4.064060 -11.597565 0
M  V30 38 H 10.673392 5.570578 -12.334819 0
M  V30 39 H 12.652182 8.696246 -8.967103 0
M  V30 40 H 11.821050 9.465973 -10.291615 0
M  V30 41 H 10.964959 9.151298 -8.778060 0
M  V30 42 H 11.427958 6.672715 -9.163509 0
M  V30 43 H 11.966451 7.055155 -10.783691 0
M  V30 44 H 11.808111 3.565583 -16.983249 0
M  V30 45 H 10.972802 4.966639 -17.594116 0
M  V30 46 H 9.035218 1.369305 -15.394447 0
M  V30 47 H 9.066897 3.728266 -18.181454 0
M  V30 48 H 9.414962 3.429956 -16.516882 0
M  V30 49 H 8.638499 2.568635 -12.490398 0
M  V30 50 H 5.950058 1.904395 -17.574736 0
M  V30 51 H 7.016135 3.288054 -17.355294 0
M  V30 52 H 6.990161 2.424229 -18.877652 0
M  V30 53 H 7.396560 -0.817278 -15.825522 0
M  V30 54 H 12.255798 1.240271 -17.729299 0
M  V30 55 H 12.149842 0.282680 -19.172502 0
M  V30 56 H 7.327079 0.943318 -13.833886 0
M  V30 57 H 11.730926 5.633569 -19.956620 0
M  V30 58 H 9.690242 7.786282 -11.421347 0
M  V30 59 H 9.198840 7.746637 -9.756266 0
M  V30 60 H 7.478012 6.185587 -11.403142 0
M  V30 61 H 7.401226 4.852891 -10.505383 0
M  V30 62 H 4.179694 -0.133771 -14.711134 0
M  V30 63 H 5.663093 -0.560121 -13.860030 0
M  V30 64 H 4.798902 0.933800 -13.449878 0
M  V30 65 H 7.502566 6.380978 -9.814957 0
M  V30 END ATOM
M  V30 BEGIN BOND
M  V30 1 1 8 4
M  V30 2 1 8 7
M  V30 3 1 9 2
M  V30 4 2 10 5
M  V30 5 1 10 9
M  V30 6 1 12 3
M  V30 7 1 13 11
M  V30 8 1 15 4
M  V30 9 1 16 12
M  V30 10 1 17 8
M  V30 11 1 17 14
M  V30 12 2 18 7
M  V30 13 2 19 6
M  V30 14 1 20 1
M  V30 15 1 20 19
M  V30 16 1 21 1
M  V30 17 1 21 10
M  V30 18 1 21 20
M  V30 19 1 22 4
M  V30 20 1 23 15
M  V30 21 1 24 7
M  V30 22 1 24 16
M  V30 23 1 26 19
M  V30 24 1 27 1
M  V30 25 1 27 15
M  V30 26 1 27 25
M  V30 27 2 28 3
M  V30 28 1 29 2
M  V30 29 1 29 13
M  V30 30 1 30 2
M  V30 31 1 31 25
M  V30 32 1 32 14
M  V30 33 2 32 16
M  V30 34 1 32 28
M  V30 35 1 1 33 CFG=3
M  V30 36 1 2 34 CFG=1
M  V30 37 1 35 3
M  V30 38 1 4 36 CFG=3
M  V30 39 1 37 9
M  V30 40 1 38 9
M  V30 41 1 39 11
M  V30 42 1 40 11
M  V30 43 1 41 11
M  V30 44 1 42 13
M  V30 45 1 43 13
M  V30 46 1 44 14
M  V30 47 1 45 14
M  V30 48 1 15 46 CFG=1
M  V30 49 1 47 17
M  V30 50 1 48 17
M  V30 51 1 21 49 CFG=1
M  V30 52 1 50 22
M  V30 53 1 51 22
M  V30 54 1 52 22
M  V30 55 1 53 23
M  V30 56 1 54 24
M  V30 57 1 55 24
M  V30 58 1 27 56 CFG=1
M  V30 59 1 57 28
M  V30 60 1 58 29
M  V30 61 1 59 29
M  V30 62 1 60 30
M  V30 63 1 61 30
M  V30 64 1 62 31
M  V30 65 1 63 31
M  V30 66 1 64 31
M  V30 67 1 65 30
M  V30 END BOND
M  V30 END CTAB
M  END
>  <i_epik_Tot_Q>  (1) 
0

>  <i_epik_Tot_abs_Q>  (1) 
2

>  <i_i_glide_confnum>  (1) 
334

>  <i_i_glide_lignum>  (1) 
166

>  <i_i_glide_posenum>  (1) 
280

>  <i_i_glide_rotatable_bonds>  (1) 
12

>  <i_lp_mmshare_version>  (1) 
72125

>  <i_m_source_file_index>  (1) 
82

>  <i_f3d_flags>  (1) 
0

>  <num_sample>  (1) 
100

>  <b_lp_Chiralities_Consistent>  (1) 
1

>  <r_epik_Charging_Adjusted_Penalty>  (1) 
0.020538690311271313

>  <r_epik_Ionization_Penalty>  (1) 
0.011193014289855681

>  <r_epik_Ionization_Penalty_Charging>  (1) 
0.011192617808242357

>  <r_epik_Ionization_Penalty_Neutral>  (1) 
3.9648161332337345e-07

>  <r_epik_State_Penalty>  (1) 
0.0093460725030289557

>  <r_glide_ring_energy>  (1) 
0

>  <r_i_docking_score>  (1) 
-4.5133518594476048

>  <r_i_glide_ecoul>  (1) 
-7.8935341553435734

>  <r_i_glide_eff_state_penalty>  (1) 
0.0093460725030289557

>  <r_i_glide_einternal>  (1) 
12.421456525024485

>  <r_i_glide_emodel>  (1) 
-29.844856292273661

>  <r_i_glide_emodel_strain>  (1) 
5.1059307677482195

>  <r_i_glide_energy>  (1) 
-31.608602153343078

>  <r_i_glide_erotb>  (1) 
0.64619886402953775

>  <r_i_glide_esite>  (1) 
-0.10000000000000001

>  <r_i_glide_evdw>  (1) 
-23.715067997999505

>  <r_i_glide_gscore>  (1) 
-4.522697931950634

>  <r_i_glide_gscore_strain>  (1) 
0.27648269193705488

>  <r_i_glide_hbond>  (1) 
-0.19585294268023709

>  <r_i_glide_ligand_efficiency>  (1) 
-0.14104224560773765

>  <r_i_glide_ligand_efficiency_ln>  (1) 
-1.0106625106554163

>  <r_i_glide_ligand_efficiency_sa>  (1) 
-0.44778121809935989

>  <r_i_glide_lipo>  (1) 
-1.3186760286544956

>  <r_i_glide_metal>  (1) 
-0

>  <r_i_glide_rewards>  (1) 
-1.4610669933809817

>  <r_lp_Energy>  (1) 
22.366004999999998

>  <r_lp_tautomer_probability>  (1) 
0.99999996000000102

>  <s_epik_cmdline>  (1) 
J2VwaWtfcHl0aG9uJywgJy1waHQnLCAnMS4wJywgJy1waCcsICc3LjQnLCAnLXRuJywgJzgnLCAnLW1hJywgJzUwMCcsICctaW1hZScsICc8aW5maWxlLm1hZT4nLCAnLW9tYWUnLCAnPG91dGZpbGUubWFlPic=

>  <s_epik_input>  (1) 
W0NIM11bQ0gyXVtDSDJdW0NAQEhdKFtOSDJdKVtDSDJdQyg9TylbQ0BIXTFOKEMoPU8pW09IXSlbQ0BASF0xW0NAQEhdKE9bQ0gzXSlbQ0BASF0oW09IXSlbQ0BASF0oW0NIM10pTihDKD1PKVtDSDJdMilbQ0gyXVtDSDJdYyhjMjMpW2NIXVtjSF1zMw==

>  <s_glide_docking_method>  (1) 
confgen

>  <s_i_glide_gridfile>  (1) 
gpcr_drd2_6luq_protein_autoprepared_prepared

>  <s_lp_Force_Field>  (1) 
S-OPLS

>  <s_lp_Variant>  (1) 
DiffSBDD_81_num_sample_100-1

>  <s_m_source_file>  (1) 
generated__ligand_DiffSBDD_2026-05-06_prepared.sdf

>  <GenAI_Model>  (1) 
DiffSBDD

>  <Protein>  (1) 
generic_title2

$$$$
DiffSBDD_89_num_sample_100
     RDKit          3D

  0  0  0  0  0  0  0  0  0  0999 V3000
M  V30 BEGIN CTAB
M  V30 COUNTS 75 80 0 0 1
M  V30 BEGIN ATOM
M  V30 1 C 9.130450 5.196926 -11.238730 0
M  V30 2 C 8.479090 3.321671 -12.962634 0
M  V30 3 C 9.550087 4.216558 -12.338422 0
M  V30 4 C 7.834659 6.382587 -13.877174 0
M  V30 5 C 7.261676 2.857593 -15.063353 0 CFG=1
M  V30 6 C 9.123471 2.611770 -18.362975 0 CFG=2
M  V30 7 C 11.708415 8.590653 -7.832735 0
M  V30 8 C 7.166379 3.112061 -16.568484 0 CFG=2
M  V30 9 C 11.657679 9.031002 -6.378291 0
M  V30 10 C 13.002454 8.169300 -9.849390 0
M  V30 11 C 6.634756 2.236874 -17.710233 0
M  V30 12 C 6.350069 1.897200 -14.300329 0
M  V30 13 C 9.188831 8.257053 -7.800817 0
M  V30 14 C 9.038397 4.038111 -18.931725 0
M  V30 15 C 11.834705 7.780700 -10.533287 0
M  V30 16 C 8.301150 2.251704 -15.993035 0 CFG=1
M  V30 17 C 7.903812 6.288312 -18.862033 0
M  V30 18 C 7.014387 5.070633 -13.848692 0
M  V30 19 C 10.524904 8.219123 -8.515334 0
M  V30 20 C 7.336257 4.578367 -17.059948 0
M  V30 21 C 8.013085 4.911301 -10.237713 0
M  V30 22 C 8.097311 7.111703 -12.526268 0
M  V30 23 C 9.319417 6.642102 -11.691167 0 CFG=1
M  V30 24 C 9.434797 4.766296 -9.804090 0
M  V30 25 C 7.754695 4.794123 -18.538745 0 CFG=2
M  V30 26 N 7.878579 3.902432 -14.184380 0 CFG=1 CHG=1
M  V30 27 C 7.814423 1.803426 -18.633954 0
M  V30 28 C 9.495749 2.643768 -16.847855 0
M  V30 29 O 9.413955 7.501939 -10.544972 0
M  V30 30 C 10.585577 7.820647 -9.876018 0
M  V30 31 C 12.937360 8.569252 -8.506595 0
M  V30 32 H 7.702580 3.044372 -12.257539 0
M  V30 33 H 8.965006 2.380958 -13.223730 0
M  V30 34 H 10.234839 3.527733 -11.891667 0
M  V30 35 H 10.136055 4.711376 -13.111641 0
M  V30 36 H 7.306312 7.084740 -14.523955 0
M  V30 37 H 8.771115 6.169300 -14.388183 0
M  V30 38 H 9.940735 2.118407 -18.891312 0
M  V30 39 H 12.635917 9.370425 -6.036964 0
M  V30 40 H 10.962605 9.861037 -6.249205 0
M  V30 41 H 11.350664 8.205325 -5.735718 0
M  V30 42 H 13.953352 8.169308 -10.360168 0
M  V30 43 H 5.874149 2.761733 -18.291647 0
M  V30 44 H 6.132606 1.357032 -17.306734 0
M  V30 45 H 5.834851 1.234231 -14.991894 0
M  V30 46 H 6.927197 1.252464 -13.636503 0
M  V30 47 H 5.620115 2.437929 -13.697423 0
M  V30 48 H 8.633331 9.115095 -8.167842 0
M  V30 49 H 8.634843 7.343122 -8.010518 0
M  V30 50 H 9.246352 8.336133 -6.717977 0
M  V30 51 H 9.920635 4.600275 -18.621335 0
M  V30 52 H 9.094616 3.992532 -20.020353 0
M  V30 53 H 11.901258 7.482074 -11.563589 0
M  V30 54 H 8.194195 1.166799 -16.004551 0
M  V30 55 H 8.721638 6.729479 -18.293325 0
M  V30 56 H 8.118237 6.443283 -19.920548 0
M  V30 57 H 6.993293 6.840373 -18.627867 0
M  V30 58 H 6.504877 4.935158 -12.893487 0
M  V30 59 H 6.215607 5.145116 -14.586147 0
M  V30 60 H 6.392369 5.096994 -16.894741 0
M  V30 61 H 8.072405 5.093374 -16.446845 0
M  V30 62 H 7.471148 5.763263 -9.831807 0
M  V30 63 H 7.411463 4.017232 -10.340180 0
M  V30 64 H 7.195289 7.097004 -11.912915 0
M  V30 65 H 8.261896 8.166590 -12.750135 0
M  V30 66 H 10.195793 6.724961 -12.325549 0
M  V30 67 H 9.834841 3.769301 -9.658000 0
M  V30 68 H 9.783555 5.484488 -9.070421 0
M  V30 69 H 6.950589 4.438084 -19.181476 0
M  V30 70 H 7.524551 1.876172 -19.683165 0
M  V30 71 H 8.021260 0.746538 -18.459548 0
M  V30 72 H 9.906974 3.603027 -16.532615 0
M  V30 73 H 10.279082 1.904011 -16.691687 0
M  V30 74 H 13.834838 8.868223 -7.992985 0
M  V30 75 H 8.641512 4.269217 -14.733980 0
M  V30 END ATOM
M  V30 BEGIN BOND
M  V30 1 1 3 1
M  V30 2 1 3 2
M  V30 3 1 8 5
M  V30 4 1 9 7
M  V30 5 1 8 11 CFG=3
M  V30 6 1 5 12 CFG=1
M  V30 7 1 14 6
M  V30 8 1 15 10
M  V30 9 1 16 5
M  V30 10 1 16 8
M  V30 11 1 18 4
M  V30 12 2 19 7
M  V30 13 1 19 13
M  V30 14 1 20 8
M  V30 15 1 21 1
M  V30 16 1 22 4
M  V30 17 1 23 1
M  V30 18 1 23 22
M  V30 19 1 24 1
M  V30 20 1 24 21
M  V30 21 1 25 14
M  V30 22 1 25 17
M  V30 23 1 25 20
M  V30 24 1 26 2
M  V30 25 1 26 5
M  V30 26 1 26 18
M  V30 27 1 27 6
M  V30 28 1 27 11
M  V30 29 1 28 6
M  V30 30 1 28 16
M  V30 31 1 29 23
M  V30 32 2 30 15
M  V30 33 1 30 19
M  V30 34 1 30 29
M  V30 35 1 31 7
M  V30 36 2 31 10
M  V30 37 1 32 2
M  V30 38 1 33 2
M  V30 39 1 34 3
M  V30 40 1 35 3
M  V30 41 1 36 4
M  V30 42 1 37 4
M  V30 43 1 6 38 CFG=3
M  V30 44 1 39 9
M  V30 45 1 40 9
M  V30 46 1 41 9
M  V30 47 1 42 10
M  V30 48 1 43 11
M  V30 49 1 44 11
M  V30 50 1 45 12
M  V30 51 1 46 12
M  V30 52 1 47 12
M  V30 53 1 48 13
M  V30 54 1 49 13
M  V30 55 1 50 13
M  V30 56 1 51 14
M  V30 57 1 52 14
M  V30 58 1 53 15
M  V30 59 1 16 54 CFG=3
M  V30 60 1 55 17
M  V30 61 1 56 17
M  V30 62 1 57 17
M  V30 63 1 58 18
M  V30 64 1 59 18
M  V30 65 1 60 20
M  V30 66 1 61 20
M  V30 67 1 62 21
M  V30 68 1 63 21
M  V30 69 1 64 22
M  V30 70 1 65 22
M  V30 71 1 23 66 CFG=3
M  V30 72 1 67 24
M  V30 73 1 68 24
M  V30 74 1 25 69 CFG=3
M  V30 75 1 70 27
M  V30 76 1 71 27
M  V30 77 1 72 28
M  V30 78 1 73 28
M  V30 79 1 74 31
M  V30 80 1 26 75 CFG=3
M  V30 END BOND
M  V30 END CTAB
M  END
>  <i_epik_Tot_Q>  (1) 
1

>  <i_epik_Tot_abs_Q>  (1) 
1

>  <i_i_glide_confnum>  (1) 
3

>  <i_i_glide_lignum>  (1) 
179

>  <i_i_glide_posenum>  (1) 
316

>  <i_i_glide_rotatable_bonds>  (1) 
3

>  <i_lp_mmshare_version>  (1) 
72125

>  <i_m_source_file_index>  (1) 
90

>  <i_f3d_flags>  (1) 
0

>  <num_sample>  (1) 
100

>  <b_lp_Chiralities_Consistent>  (1) 
1

>  <r_epik_Charging_Adjusted_Penalty>  (1) 
0.1480359762680355

>  <r_epik_Ionization_Penalty>  (1) 
0.074017988134017734

>  <r_epik_Ionization_Penalty_Charging>  (1) 
0.074017988134017734

>  <r_epik_Ionization_Penalty_Neutral>  (1) 
0

>  <r_epik_State_Penalty>  (1) 
0.074017988134017776

>  <r_glide_ring_energy>  (1) 
0.47314266246867254

>  <r_i_docking_score>  (1) 
-4.5124837901985426

>  <r_i_glide_ecoul>  (1) 
-1.7881341438469986

>  <r_i_glide_eff_state_penalty>  (1) 
0.074017988134017776

>  <r_i_glide_einternal>  (1) 
3.6611440218185827

>  <r_i_glide_emodel>  (1) 
-29.243749705760656

>  <r_i_glide_emodel_strain>  (1) 
0.80306568213195817

>  <r_i_glide_energy>  (1) 
-25.447368957887623

>  <r_i_glide_erotb>  (1) 
0.33268982325706958

>  <r_i_glide_esite>  (1) 
0

>  <r_i_glide_evdw>  (1) 
-23.659234814040623

>  <r_i_glide_gscore>  (1) 
-4.5865017783325603

>  <r_i_glide_gscore_strain>  (1) 
0

>  <r_i_glide_hbond>  (1) 
0

>  <r_i_glide_ligand_efficiency>  (1) 
-0.14556399323221106

>  <r_i_glide_ligand_efficiency_ln>  (1) 
-1.0177033857098177

>  <r_i_glide_ligand_efficiency_sa>  (1) 
-0.45727191202449957

>  <r_i_glide_lipo>  (1) 
-2.2597110832033174

>  <r_i_glide_metal>  (1) 
-0

>  <r_i_glide_rewards>  (1) 
-1.2082986561072313

>  <r_lp_Energy>  (1) 
80.633463999999989

>  <r_lp_tautomer_probability>  (1) 
1

>  <s_epik_cmdline>  (1) 
J2VwaWtfcHl0aG9uJywgJy1waHQnLCAnMS4wJywgJy1waCcsICc3LjQnLCAnLXRuJywgJzgnLCAnLW1hJywgJzUwMCcsICctaW1hZScsICc8aW5maWxlLm1hZT4nLCAnLW9tYWUnLCAnPG91dGZpbGUubWFlPic=

>  <s_epik_input>  (1) 
W0NIM11bQ0BIXShbQ0gyXTEpW0NIMl1bQ0BIXShbQ0gyXVtDSDJdMilbQ0gyXVtDQEhdKFtDQEBdMTIzKVtDQEBdMyhbQ0gzXSlOKFtDSDJdW0NIMl1DNDVbQ0gyXVtDSDJdNSlbQ0gyXVtDSDJdW0NIMl1bQ0BIXTRPYyhbY0hdW2NIXVtjSF02KWMoW0NIM10pYzZbQ0gzXQ==

>  <s_glide_docking_method>  (1) 
confgen

>  <s_i_glide_gridfile>  (1) 
gpcr_drd2_6luq_protein_autoprepared_prepared

>  <s_lp_Force_Field>  (1) 
S-OPLS

>  <s_lp_Variant>  (1) 
DiffSBDD_89_num_sample_100-1

>  <s_m_source_file>  (1) 
generated__ligand_DiffSBDD_2026-05-06_prepared.sdf

>  <GenAI_Model>  (1) 
DiffSBDD

>  <Protein>  (1) 
generic_title2

$$$$
DiffSBDD_49_num_sample_100
     RDKit          3D

  0  0  0  0  0  0  0  0  0  0999 V3000
M  V30 BEGIN CTAB
M  V30 COUNTS 52 55 0 0 1
M  V30 BEGIN ATOM
M  V30 1 N 9.683834 5.582286 -11.571322 0
M  V30 2 C 12.297448 8.403370 -8.696745 0
M  V30 3 C 10.309660 7.426753 -7.676251 0
M  V30 4 C 5.687429 5.156855 -12.457678 0
M  V30 5 C 7.731343 0.070367 -15.684661 0
M  V30 6 S 8.634839 8.030041 -11.917866 0
M  V30 7 C 11.823822 8.039235 -9.972025 0
M  V30 8 C 7.792902 1.984123 -13.954376 0 CFG=1
M  V30 9 C 10.064106 6.984349 -11.486898 0 CFG=1
M  V30 10 C 6.305552 6.529100 -12.163601 0
M  V30 11 C 7.998325 3.520923 -13.777050 0
M  V30 12 C 8.556634 5.435174 -12.125619 0
M  V30 13 C 6.312518 -0.347194 -15.258014 0 CFG=2
M  V30 14 O 5.150371 -0.630708 -17.367354 0
M  V30 15 C 7.895694 4.067048 -12.323555 0 CFG=1
M  V30 16 C 5.220210 0.171580 -16.207212 0
M  V30 17 C 10.587662 7.369301 -10.102786 0
M  V30 18 C 6.402773 1.502114 -13.468581 0
M  V30 19 C 11.539544 8.098825 -7.549373 0
M  V30 20 C 7.772629 6.615349 -12.618275 0 CFG=2
M  V30 21 C 8.005419 1.566406 -15.433192 0
M  V30 22 N 6.503991 4.105637 -11.863332 0
M  V30 23 C 6.097041 0.030408 -13.782782 0
M  V30 24 C 9.834840 7.061628 -8.949982 0
M  V30 25 H 8.428212 3.369304 -11.677191 0
M  V30 26 H 13.242478 8.918129 -8.599484 0
M  V30 27 H 9.727356 7.192851 -6.796599 0
M  V30 28 H 4.704519 5.086619 -11.995714 0
M  V30 29 H 5.558394 5.000019 -13.528262 0
M  V30 30 H 8.457295 -0.525747 -15.129676 0
M  V30 31 H 7.890220 -0.166260 -16.737214 0
M  V30 32 H 12.407143 8.275067 -10.848400 0
M  V30 33 H 8.546829 1.471273 -13.354222 0
M  V30 34 H 10.842963 7.173020 -12.227263 0
M  V30 35 H 6.236496 6.687639 -11.091667 0
M  V30 36 H 5.717161 7.320660 -12.627888 0
M  V30 37 H 8.993833 3.769302 -14.145014 0
M  V30 38 H 7.321644 4.059560 -14.439796 0
M  V30 39 H 6.234838 -1.430615 -15.307661 0
M  V30 40 H 4.959803 -1.520289 -17.106618 0
M  V30 41 H 5.434836 1.193104 -16.514691 0
M  V30 42 H 4.242348 0.160145 -15.723996 0
M  V30 43 H 6.329801 1.603474 -12.387310 0
M  V30 44 H 5.626130 2.133224 -13.891667 0
M  V30 45 H 11.901491 8.380308 -6.572332 0
M  V30 46 H 9.021978 1.772766 -15.764376 0
M  V30 47 H 7.368577 2.173373 -16.075965 0
M  V30 48 H 5.078188 -0.212347 -13.477498 0
M  V30 49 H 6.739021 -0.598771 -13.165960 0
M  V30 50 H 8.886609 6.550701 -9.044940 0
M  V30 51 H 6.073756 3.206122 -12.018079 0
M  V30 52 H 7.840295 6.651592 -13.705757 0
M  V30 END ATOM
M  V30 BEGIN BOND
M  V30 1 1 7 2
M  V30 2 1 9 1
M  V30 3 1 9 6
M  V30 4 1 10 4
M  V30 5 1 11 8
M  V30 6 2 12 1
M  V30 7 1 13 5
M  V30 8 1 15 11
M  V30 9 1 15 12
M  V30 10 1 16 13
M  V30 11 1 16 14
M  V30 12 2 17 7
M  V30 13 1 17 9
M  V30 14 1 18 8
M  V30 15 2 19 2
M  V30 16 1 19 3
M  V30 17 1 20 6
M  V30 18 1 20 10
M  V30 19 1 20 12
M  V30 20 1 21 5
M  V30 21 1 21 8
M  V30 22 1 22 4
M  V30 23 1 22 15
M  V30 24 1 23 13
M  V30 25 1 23 18
M  V30 26 2 24 3
M  V30 27 1 24 17
M  V30 28 1 15 25 CFG=1
M  V30 29 1 26 2
M  V30 30 1 27 3
M  V30 31 1 28 4
M  V30 32 1 29 4
M  V30 33 1 30 5
M  V30 34 1 31 5
M  V30 35 1 32 7
M  V30 36 1 8 33 CFG=1
M  V30 37 1 9 34 CFG=3
M  V30 38 1 35 10
M  V30 39 1 36 10
M  V30 40 1 37 11
M  V30 41 1 38 11
M  V30 42 1 13 39 CFG=1
M  V30 43 1 40 14
M  V30 44 1 41 16
M  V30 45 1 42 16
M  V30 46 1 43 18
M  V30 47 1 44 18
M  V30 48 1 45 19
M  V30 49 1 46 21
M  V30 50 1 47 21
M  V30 51 1 48 23
M  V30 52 1 49 23
M  V30 53 1 50 24
M  V30 54 1 51 22
M  V30 55 1 20 52 CFG=3
M  V30 END BOND
M  V30 END CTAB
M  END
>  <i_epik_Tot_Q>  (1) 
0

>  <i_epik_Tot_abs_Q>  (1) 
0

>  <i_i_glide_confnum>  (1) 
15

>  <i_i_glide_lignum>  (1) 
92

>  <i_i_glide_posenum>  (1) 
217

>  <i_i_glide_rotatable_bonds>  (1) 
5

>  <i_lp_mmshare_version>  (1) 
72125

>  <i_m_source_file_index>  (1) 
50

>  <i_f3d_flags>  (1) 
0

>  <num_sample>  (1) 
100

>  <b_lp_Chiralities_Consistent>  (1) 
1

>  <r_epik_Charging_Adjusted_Penalty>  (1) 
0.1447540794995397

>  <r_epik_Ionization_Penalty>  (1) 
0.14481163516182699

>  <r_epik_Ionization_Penalty_Charging>  (1) 
0

>  <r_epik_Ionization_Penalty_Neutral>  (1) 
0.14481163516182699

>  <r_epik_State_Penalty>  (1) 
0.1447540794995397

>  <r_glide_ring_energy>  (1) 
0.012110018449817897

>  <r_i_docking_score>  (1) 
-4.5110517601141726

>  <r_i_glide_ecoul>  (1) 
0.98671403890764586

>  <r_i_glide_eff_state_penalty>  (1) 
0.1447540794995397

>  <r_i_glide_einternal>  (1) 
3.1871580977516771

>  <r_i_glide_emodel>  (1) 
-35.052175453139071

>  <r_i_glide_emodel_strain>  (1) 
0.13865553813620579

>  <r_i_glide_energy>  (1) 
-32.02355682060152

>  <r_i_glide_erotb>  (1) 
0.63990235469448886

>  <r_i_glide_esite>  (1) 
0

>  <r_i_glide_evdw>  (1) 
-33.010270859509163

>  <r_i_glide_gscore>  (1) 
-4.6558058396137127

>  <r_i_glide_gscore_strain>  (1) 
0

>  <r_i_glide_hbond>  (1) 
0

>  <r_i_glide_ligand_efficiency>  (1) 
-0.1879604900047572

>  <r_i_glide_ligand_efficiency_ln>  (1) 
-1.0797016848723788

>  <r_i_glide_ligand_efficiency_sa>  (1) 
-0.54217187188826199

>  <r_i_glide_lipo>  (1) 
-1.7810343683628922

>  <r_i_glide_metal>  (1) 
-0

>  <r_i_glide_rewards>  (1) 
-2.0121673888059988

>  <r_lp_Energy>  (1) 
25.428964000000001

>  <r_lp_tautomer_probability>  (1) 
0.99998399999999998

>  <s_epik_Chemistry_Notes>  (1) 
This compound has an imine and may undergo hydrolysis. This compound contains an acetal/aminal-like group ( X-CH(R)-Y where X, Y are N, S, or O) that may be acid/base labile, releasing an aldehyde.

>  <s_epik_cmdline>  (1) 
J2VwaWtfcHl0aG9uJywgJy1waHQnLCAnMS4wJywgJy1waCcsICc3LjQnLCAnLXRuJywgJzgnLCAnLW1hJywgJzUwMCcsICctaW1hZScsICc8aW5maWxlLm1hZT4nLCAnLW9tYWUnLCAnPG91dGZpbGUubWFlPic=

>  <s_epik_input>  (1) 
W2NIXTFbY0hdW2NIXVtjSF1bY0hdYzFbQ0BASF0oW05IXTIpU1tDQEBIXShbQ0BIXTIzKVtDSDJdW0NIMl1OPUMzW0NIMl1bQ0BIXTRbQ0gyXVtDSDJdW0NASF0oW0NIMl1bQ0gyXTQpW0NIMl1bT0hd

>  <s_glide_docking_method>  (1) 
confgen

>  <s_i_glide_gridfile>  (1) 
gpcr_drd2_6luq_protein_autoprepared_prepared

>  <s_lp_Force_Field>  (1) 
S-OPLS

>  <s_lp_Variant>  (1) 
DiffSBDD_49_num_sample_100-2

>  <s_m_source_file>  (1) 
generated__ligand_DiffSBDD_2026-05-06_prepared.sdf

>  <GenAI_Model>  (1) 
DiffSBDD

>  <Protein>  (1) 
generic_title2

$$$$
DiffSBDD_10_num_sample_100
     RDKit          3D

  0  0  0  0  0  0  0  0  0  0999 V3000
M  V30 BEGIN CTAB
M  V30 COUNTS 72 75 0 0 1
M  V30 BEGIN ATOM
M  V30 1 Cl 3.811844 9.537131 -21.092095 0
M  V30 2 C 9.381347 5.320586 -10.642709 0 CFG=1
M  V30 3 O 9.213868 4.846494 -14.999738 0
M  V30 4 C 8.946268 4.693308 -17.375049 0 CFG=1
M  V30 5 C 9.434857 4.970737 -9.145406 0
M  V30 6 C 10.220204 8.687825 -9.236331 0
M  V30 7 C 9.738977 6.908721 -7.434271 0
M  V30 8 C 8.403983 6.566714 -13.331019 0
M  V30 9 C 8.532265 5.610208 -18.549640 0
M  V30 10 C 10.679306 7.631275 -10.274928 0
M  V30 11 C 6.616123 6.991411 -20.169881 0
M  V30 12 C 8.959583 5.161136 -13.634042 0 CFG=1
M  V30 13 C 9.516392 5.872266 -8.198941 0
M  V30 14 N 7.252160 3.346626 -13.339538 0 CHG=1
M  V30 15 C 7.764824 2.448572 -18.180192 0 CFG=2
M  V30 16 N 7.527378 1.237832 -17.386742 0
M  V30 17 O 10.091481 2.613035 -17.519101 0
M  V30 18 C 6.100696 1.072220 -13.558469 0
M  V30 19 C 7.666661 7.247958 -21.068203 0
M  V30 20 C 6.876568 2.068331 -12.691687 0
M  V30 21 C 7.935014 2.066965 -19.658584 0
M  V30 22 N 9.922534 8.204625 -7.885574 0
M  V30 23 C 8.154475 4.600343 -11.287306 0
M  V30 24 C 9.495619 6.867206 -10.948280 0 CFG=1
M  V30 25 C 8.316393 4.930853 -15.993511 0
M  V30 26 S 6.756546 5.727522 -18.940472 0
M  V30 27 C 6.634760 1.486222 -16.270729 0
M  V30 28 C 9.414197 7.301649 -12.426182 0
M  V30 29 C 6.288398 8.980562 -22.020305 0
M  V30 30 C 5.288986 8.651300 -21.078225 0
M  V30 31 F 8.473580 8.550244 -22.899251 0
M  V30 32 C 9.018559 3.192958 -17.686638 0
M  V30 33 C 8.416197 4.045779 -12.725468 0 CFG=2
M  V30 34 C 7.494046 8.263556 -22.011226 0
M  V30 35 S 7.101171 0.396714 -14.911920 0
M  V30 36 O 7.117173 5.164001 -15.845819 0
M  V30 37 N 5.444613 7.664156 -20.159399 0
M  V30 38 H 10.234822 4.825216 -11.087417 0
M  V30 39 H 9.992958 4.958109 -17.219248 0
M  V30 40 H 9.434921 3.932651 -8.898549 0
M  V30 41 H 9.352540 9.234711 -9.609233 0
M  V30 42 H 11.017401 9.422293 -9.131682 0
M  V30 43 H 9.817038 6.823100 -6.361246 0
M  V30 44 H 7.409079 6.551316 -12.893033 0
M  V30 45 H 8.234757 7.116929 -14.253527 0
M  V30 46 H 8.901540 6.617032 -18.355587 0
M  V30 47 H 9.052356 5.267233 -19.444450 0
M  V30 48 H 11.243999 8.168747 -11.033472 0
M  V30 49 H 11.420506 6.969435 -9.835270 0
M  V30 50 H 10.002294 5.210582 -13.321538 0
M  V30 51 H 6.457846 3.969968 -13.376551 0
M  V30 52 H 6.893207 3.098827 -18.105372 0
M  V30 53 H 7.208111 0.451725 -17.935711 0
M  V30 54 H 5.152477 1.480470 -13.891916 0
M  V30 55 H 5.832446 0.222569 -12.930169 0
M  V30 56 H 8.581966 6.681044 -21.035836 0
M  V30 57 H 6.234874 2.319029 -11.854649 0
M  V30 58 H 7.765815 1.562634 -12.313784 0
M  V30 59 H 8.102131 2.948254 -20.279446 0
M  V30 60 H 7.042836 1.567897 -20.038019 0
M  V30 61 H 8.780241 1.391695 -19.802445 0
M  V30 62 H 10.022980 8.907138 -7.168802 0
M  V30 63 H 7.880658 3.769297 -10.655479 0
M  V30 64 H 7.274995 5.241411 -11.234574 0
M  V30 65 H 8.634646 7.306858 -10.494203 0
M  V30 66 H 6.699031 2.513384 -15.921705 0
M  V30 67 H 5.606106 1.299138 -16.579575 0
M  V30 68 H 10.415844 7.204840 -12.848118 0
M  V30 69 H 9.187950 8.368310 -12.455355 0
M  V30 70 H 6.125778 9.770947 -22.737061 0
M  V30 71 H 9.212276 3.301435 -12.658474 0
M  V30 72 H 7.527073 3.124507 -14.285435 0
M  V30 END ATOM
M  V30 BEGIN BOND
M  V30 1 1 5 2
M  V30 2 1 9 4
M  V30 3 1 10 6
M  V30 4 1 12 3
M  V30 5 1 12 8
M  V30 6 2 13 5
M  V30 7 2 13 7
M  V30 8 1 16 15
M  V30 9 2 19 11
M  V30 10 1 20 14
M  V30 11 1 20 18
M  V30 12 1 21 15
M  V30 13 1 22 6
M  V30 14 1 22 7
M  V30 15 1 23 2
M  V30 16 1 24 2
M  V30 17 1 24 10
M  V30 18 1 25 3
M  V30 19 1 25 4
M  V30 20 1 26 9
M  V30 21 1 26 11
M  V30 22 1 27 16
M  V30 23 1 28 8
M  V30 24 1 28 24
M  V30 25 1 30 1
M  V30 26 1 30 29
M  V30 27 1 32 4
M  V30 28 1 32 15
M  V30 29 2 32 17
M  V30 30 1 33 12
M  V30 31 1 33 14
M  V30 32 1 33 23
M  V30 33 1 34 19
M  V30 34 2 34 29
M  V30 35 1 34 31
M  V30 36 1 35 18
M  V30 37 1 35 27
M  V30 38 2 36 25
M  V30 39 1 37 11
M  V30 40 2 37 30
M  V30 41 1 2 38 CFG=3
M  V30 42 1 4 39 CFG=1
M  V30 43 1 40 5
M  V30 44 1 41 6
M  V30 45 1 42 6
M  V30 46 1 43 7
M  V30 47 1 44 8
M  V30 48 1 45 8
M  V30 49 1 46 9
M  V30 50 1 47 9
M  V30 51 1 48 10
M  V30 52 1 49 10
M  V30 53 1 12 50 CFG=1
M  V30 54 1 51 14
M  V30 55 1 15 52 CFG=3
M  V30 56 1 53 16
M  V30 57 1 54 18
M  V30 58 1 55 18
M  V30 59 1 56 19
M  V30 60 1 57 20
M  V30 61 1 58 20
M  V30 62 1 59 21
M  V30 63 1 60 21
M  V30 64 1 61 21
M  V30 65 1 62 22
M  V30 66 1 63 23
M  V30 67 1 64 23
M  V30 68 1 24 65 CFG=1
M  V30 69 1 66 27
M  V30 70 1 67 27
M  V30 71 1 68 28
M  V30 72 1 69 28
M  V30 73 1 70 29
M  V30 74 1 33 71 CFG=1
M  V30 75 1 72 14
M  V30 END BOND
M  V30 END CTAB
M  END
>  <i_epik_Tot_Q>  (1) 
1

>  <i_epik_Tot_abs_Q>  (1) 
1

>  <i_i_glide_confnum>  (1) 
27

>  <i_i_glide_lignum>  (1) 
16

>  <i_i_glide_posenum>  (1) 
142

>  <i_i_glide_rotatable_bonds>  (1) 
3

>  <i_lp_mmshare_version>  (1) 
72125

>  <i_m_source_file_index>  (1) 
11

>  <i_f3d_flags>  (1) 
0

>  <num_sample>  (1) 
100

>  <b_lp_Chiralities_Consistent>  (1) 
1

>  <r_epik_Charging_Adjusted_Penalty>  (1) 
0.12758977024119775

>  <r_epik_Ionization_Penalty>  (1) 
0.067546712429239514

>  <r_epik_Ionization_Penalty_Charging>  (1) 
0.063794885120598888

>  <r_epik_Ionization_Penalty_Neutral>  (1) 
0.0037518273086406219

>  <r_epik_State_Penalty>  (1) 
0.06379488512059886

>  <r_glide_ring_energy>  (1) 
0

>  <r_i_docking_score>  (1) 
-4.510006089040397

>  <r_i_glide_ecoul>  (1) 
-0.48779738087828506

>  <r_i_glide_eff_state_penalty>  (1) 
0.06379488512059886

>  <r_i_glide_einternal>  (1) 
7.3363580834448694

>  <r_i_glide_emodel>  (1) 
-32.37257023111988

>  <r_i_glide_emodel_strain>  (1) 
2.0347135805686349

>  <r_i_glide_energy>  (1) 
-37.405000862691807

>  <r_i_glide_erotb>  (1) 
0.10236479025810979

>  <r_i_glide_esite>  (1) 
-0.072374866269495228

>  <r_i_glide_evdw>  (1) 
-36.917203481813523

>  <r_i_glide_gscore>  (1) 
-4.5738009741609957

>  <r_i_glide_gscore_strain>  (1) 
0

>  <r_i_glide_hbond>  (1) 
0

>  <r_i_glide_ligand_efficiency>  (1) 
-0.12189205646055128

>  <r_i_glide_ligand_efficiency_ln>  (1) 
-0.97811459116912425

>  <r_i_glide_ligand_efficiency_sa>  (1) 
-0.40617137407991127

>  <r_i_glide_lipo>  (1) 
-1.8509465514393926

>  <r_i_glide_metal>  (1) 
-0

>  <r_i_glide_rewards>  (1) 
-0.83381456548779886

>  <r_lp_Energy>  (1) 
41.039594999999998

>  <r_lp_tautomer_probability>  (1) 
0.99999998000000012

>  <s_epik_Chemistry_Notes>  (1) 
This compound has an ester and may undergo hydrolysis at high or low pH. This compound contains an acetal/aminal-like group ( X-CH(R)-Y where X, Y are N, S, or O) that may be acid/base labile, releasing an aldehyde.

>  <s_epik_cmdline>  (1) 
J2VwaWtfcHl0aG9uJywgJy1waHQnLCAnMS4wJywgJy1waCcsICc3LjQnLCAnLXRuJywgJzgnLCAnLW1hJywgJzUwMCcsICctaW1hZScsICc8aW5maWxlLm1hZT4nLCAnLW9tYWUnLCAnPG91dGZpbGUubWFlPic=

>  <s_epik_input>  (1) 
Q2xjKG4xKVtjSF1jKEYpW2NIXWMxU1tDSDJdW0NAQEhdKEMoTzIpPU8pQyg9TylbQ0BASF0oW0NIM10pW05IXVtDSDJdU1tDSDJdW0NIMl1bTkhdW0NASF0oW0NIMl0zKVtDQEBIXTJbQ0gyXVtDSDJdW0NAQEhdKFtDQEhdMzQpW0NIMl1bQ0gyXVtOSF1bQ0hdPUM9W0NIXTQ=

>  <s_glide_docking_method>  (1) 
confgen

>  <s_i_glide_gridfile>  (1) 
gpcr_drd2_6luq_protein_autoprepared_prepared

>  <s_lp_Force_Field>  (1) 
S-OPLS

>  <s_lp_Variant>  (1) 
DiffSBDD_10_num_sample_100-1

>  <s_m_source_file>  (1) 
generated__ligand_DiffSBDD_2026-05-06_prepared.sdf

>  <GenAI_Model>  (1) 
DiffSBDD

>  <Protein>  (1) 
generic_title2

$$$$
DiffSBDD_61_num_sample_100
     RDKit          3D

  0  0  0  0  0  0  0  0  0  0999 V3000
M  V30 BEGIN CTAB
M  V30 COUNTS 52 54 0 0 1
M  V30 BEGIN ATOM
M  V30 1 N 11.228862 8.431590 -6.088193 0 CFG=2 CHG=1
M  V30 2 C 7.113793 2.731778 -13.598795 0
M  V30 3 C 7.615034 4.161457 -13.275794 0 CFG=1
M  V30 4 O 12.284013 7.099855 -2.818815 0
M  V30 5 C 12.634769 8.450671 -2.712389 0
M  V30 6 O 9.034140 4.176323 -13.296242 0
M  V30 7 C 9.342759 6.080813 -10.127232 0
M  V30 8 O 7.434840 4.165553 -16.473635 0
M  V30 9 C 10.572209 6.822435 -9.557486 0
M  V30 10 C 7.357822 6.182859 -11.814498 0 CFG=1
M  V30 11 C 10.055145 7.609127 -6.424036 0
M  V30 12 C 7.019286 5.186970 -14.283551 0 CFG=2
M  V30 13 C 7.709451 5.289006 -15.663406 0
M  V30 14 C 9.394313 8.142031 -7.687508 0
M  V30 15 C 7.195195 4.653611 -11.875387 0
M  V30 16 C 10.329083 8.195163 -8.907581 0 CFG=1
M  V30 17 O 6.328810 2.199546 -12.782979 0 CHG=-1
M  V30 18 C 12.234774 8.370783 -7.181878 0
M  V30 19 C 8.751310 6.712137 -11.399513 0
M  V30 20 C 11.661823 8.871068 -8.523374 0
M  V30 21 C 11.738048 6.962411 -4.073683 0
M  V30 22 C 11.755898 8.163992 -4.691726 0
M  V30 23 C 12.320308 9.129402 -3.862819 0
M  V30 24 S 6.960468 6.807919 -13.465751 0
M  V30 25 O 7.525913 2.212476 -14.662048 0
M  V30 26 H 13.084691 8.737989 -1.772281 0
M  V30 27 H 9.326528 5.042829 -13.066575 0
M  V30 28 H 8.566634 5.962599 -9.373615 0
M  V30 29 H 9.657075 5.064827 -10.368013 0
M  V30 30 H 7.548161 3.379079 -15.931184 0
M  V30 31 H 11.035565 6.169292 -8.821458 0
M  V30 32 H 11.295633 6.969301 -10.361589 0
M  V30 33 H 6.616781 6.569294 -11.113962 0
M  V30 34 H 10.341183 6.564330 -6.552100 0
M  V30 35 H 9.345149 7.641335 -5.602096 0
M  V30 36 H 5.969852 4.934696 -14.451291 0
M  V30 37 H 8.787352 5.413395 -15.557713 0
M  V30 38 H 7.343746 6.167134 -16.195619 0
M  V30 39 H 8.966997 9.126391 -7.496615 0
M  V30 40 H 8.570520 7.479977 -7.891483 0
M  V30 41 H 7.725027 4.140350 -11.074826 0
M  V30 42 H 6.137459 4.437982 -11.711384 0
M  V30 43 H 9.850186 8.821387 -9.660243 0
M  V30 44 H 12.571786 7.342607 -7.315280 0
M  V30 45 H 13.107229 8.969458 -6.916526 0
M  V30 46 H 9.465001 6.598739 -12.214601 0
M  V30 47 H 8.644938 7.786314 -11.251736 0
M  V30 48 H 12.400997 8.734258 -9.314881 0
M  V30 49 H 11.512823 9.940504 -8.478701 0
M  V30 50 H 11.398735 5.970741 -4.339690 0
M  V30 51 H 12.479167 10.169272 -4.060759 0
M  V30 52 H 10.883720 9.380567 -6.104248 0
M  V30 END ATOM
M  V30 BEGIN BOND
M  V30 1 1 3 2
M  V30 2 1 5 4
M  V30 3 1 3 6 CFG=1
M  V30 4 1 9 7
M  V30 5 1 11 1
M  V30 6 1 12 3
M  V30 7 1 13 8
M  V30 8 1 13 12
M  V30 9 1 14 11
M  V30 10 1 15 3
M  V30 11 1 15 10
M  V30 12 1 16 9
M  V30 13 1 16 14
M  V30 14 1 17 2
M  V30 15 1 18 1
M  V30 16 1 19 7
M  V30 17 1 19 10
M  V30 18 1 20 16
M  V30 19 1 20 18
M  V30 20 1 21 4
M  V30 21 1 22 1
M  V30 22 2 22 21
M  V30 23 2 23 5
M  V30 24 1 23 22
M  V30 25 1 24 10
M  V30 26 1 24 12
M  V30 27 2 25 2
M  V30 28 1 26 5
M  V30 29 1 27 6
M  V30 30 1 28 7
M  V30 31 1 29 7
M  V30 32 1 30 8
M  V30 33 1 31 9
M  V30 34 1 32 9
M  V30 35 1 10 33 CFG=1
M  V30 36 1 34 11
M  V30 37 1 35 11
M  V30 38 1 12 36 CFG=3
M  V30 39 1 37 13
M  V30 40 1 38 13
M  V30 41 1 39 14
M  V30 42 1 40 14
M  V30 43 1 41 15
M  V30 44 1 42 15
M  V30 45 1 16 43 CFG=3
M  V30 46 1 44 18
M  V30 47 1 45 18
M  V30 48 1 46 19
M  V30 49 1 47 19
M  V30 50 1 48 20
M  V30 51 1 49 20
M  V30 52 1 50 21
M  V30 53 1 51 23
M  V30 54 1 1 52 CFG=1
M  V30 END BOND
M  V30 END CTAB
M  END
>  <i_epik_Tot_Q>  (1) 
0

>  <i_epik_Tot_abs_Q>  (1) 
2

>  <i_i_glide_confnum>  (1) 
33

>  <i_i_glide_lignum>  (1) 
122

>  <i_i_glide_posenum>  (1) 
38

>  <i_i_glide_rotatable_bonds>  (1) 
9

>  <i_lp_mmshare_version>  (1) 
72125

>  <i_m_source_file_index>  (1) 
62

>  <i_f3d_flags>  (1) 
0

>  <num_sample>  (1) 
100

>  <b_lp_Chiralities_Consistent>  (1) 
1

>  <r_epik_Charging_Adjusted_Penalty>  (1) 
0.30587031255842323

>  <r_epik_Ionization_Penalty>  (1) 
0.15296771237530521

>  <r_epik_Ionization_Penalty_Charging>  (1) 
0.15296734445016963

>  <r_epik_Ionization_Penalty_Neutral>  (1) 
3.6792513557102453e-07

>  <r_epik_State_Penalty>  (1) 
0.15290296810825357

>  <r_glide_ring_energy>  (1) 
0

>  <r_i_docking_score>  (1) 
-4.5081324189294127

>  <r_i_glide_ecoul>  (1) 
-0.2282192445041733

>  <r_i_glide_eff_state_penalty>  (1) 
0.15290296810825357

>  <r_i_glide_einternal>  (1) 
5.0686944153656057

>  <r_i_glide_emodel>  (1) 
-33.926215769777365

>  <r_i_glide_emodel_strain>  (1) 
1.8777253930007234

>  <r_i_glide_energy>  (1) 
-29.750335741858528

>  <r_i_glide_erotb>  (1) 
0.84742595842419921

>  <r_i_glide_esite>  (1) 
0

>  <r_i_glide_evdw>  (1) 
-29.522116497354354

>  <r_i_glide_gscore>  (1) 
-4.661035387037666

>  <r_i_glide_gscore_strain>  (1) 
0

>  <r_i_glide_hbond>  (1) 
0

>  <r_i_glide_ligand_efficiency>  (1) 
-0.18032529675717651

>  <r_i_glide_ligand_efficiency_ln>  (1) 
-1.0685624811131407

>  <r_i_glide_ligand_efficiency_sa>  (1) 
-0.52727436636648317

>  <r_i_glide_lipo>  (1) 
-1.9624723308164158

>  <r_i_glide_metal>  (1) 
-0

>  <r_i_glide_rewards>  (1) 
-2.0356503031021056

>  <r_lp_Energy>  (1) 
19.922726999999998

>  <s_epik_cmdline>  (1) 
J2VwaWtfcHl0aG9uJywgJy1waHQnLCAnMS4wJywgJy1waCcsICc3LjQnLCAnLXRuJywgJzgnLCAnLW1hJywgJzUwMCcsICctaW1hZScsICc8aW5maWxlLm1hZT4nLCAnLW9tYWUnLCAnPG91dGZpbGUubWFlPic=

>  <s_epik_input>  (1) 
W2NIXTFbY0hdb1tjSF1jMU4yW0NIMl1bQ0gyXVtDSF0oW0NIMl1bQ0gyXTIpW0NIMl1bQ0gyXVtDSDJdW0NASF0oW0NIMl0zKVNbQ0BASF0oW0NIMl1bT0hdKVtDQF0zKFtPSF0pQyg9TylbT0hd

>  <s_glide_docking_method>  (1) 
confgen

>  <s_i_glide_gridfile>  (1) 
gpcr_drd2_6luq_protein_autoprepared_prepared

>  <s_lp_Force_Field>  (1) 
S-OPLS

>  <s_lp_Variant>  (1) 
DiffSBDD_61_num_sample_100-2

>  <s_m_source_file>  (1) 
generated__ligand_DiffSBDD_2026-05-06_prepared.sdf

>  <GenAI_Model>  (1) 
DiffSBDD

>  <Protein>  (1) 
generic_title2

$$$$
DiffSBDD_49_num_sample_100
     RDKit          3D

  0  0  0  0  0  0  0  0  0  0999 V3000
M  V30 BEGIN CTAB
M  V30 COUNTS 53 56 0 0 1
M  V30 BEGIN ATOM
M  V30 1 N 8.484999 5.443324 -14.057036 0
M  V30 2 C 7.872028 5.538102 -18.792256 0
M  V30 3 C 5.997357 6.364206 -17.467274 0
M  V30 4 C 6.060013 4.415554 -10.921277 0
M  V30 5 C 9.644245 8.358385 -8.357258 0
M  V30 6 S 7.434841 3.034003 -14.605754 0
M  V30 7 C 8.440822 4.969553 -17.635881 0
M  V30 8 C 9.022066 6.076180 -9.346072 0 CFG=1
M  V30 9 C 8.405901 4.485018 -15.141597 0 CFG=1
M  V30 10 C 6.112380 3.575786 -12.221530 0
M  V30 11 C 9.020730 5.235441 -10.636376 0
M  V30 12 C 8.042652 4.968816 -12.975189 0
M  V30 13 C 10.334405 7.651492 -7.185809 0 CFG=2
M  V30 14 O 12.500105 8.695876 -7.491670 0
M  V30 15 C 8.004680 5.759796 -11.681176 0 CFG=1
M  V30 16 C 11.828035 7.458231 -7.456312 0
M  V30 17 C 7.788730 5.098262 -16.390638 0
M  V30 18 C 9.646378 5.377138 -8.130391 0
M  V30 19 C 6.650958 6.234395 -18.708170 0
M  V30 20 C 7.499271 3.576691 -12.896196 0 CFG=2
M  V30 21 C 9.613357 7.480143 -9.611042 0
M  V30 22 N 6.620793 5.769296 -11.150590 0 CHG=1
M  V30 23 C 9.642846 6.304538 -6.901061 0
M  V30 24 C 6.564114 5.797325 -16.308792 0
M  V30 25 H 8.242872 6.791475 -11.933369 0
M  V30 26 H 8.372743 5.439444 -19.744391 0
M  V30 27 H 5.061295 6.898658 -17.404194 0
M  V30 28 H 5.034845 4.515533 -10.571558 0
M  V30 29 H 6.603801 3.921390 -10.116192 0
M  V30 30 H 8.634847 8.635960 -8.056995 0
M  V30 31 H 10.147033 9.286848 -8.613523 0
M  V30 32 H 9.377157 4.435700 -17.703922 0
M  V30 33 H 7.993754 6.169297 -9.018247 0
M  V30 34 H 9.420928 4.169254 -15.381168 0
M  V30 35 H 5.367847 3.962782 -12.919355 0
M  V30 36 H 5.834843 2.543562 -12.012507 0
M  V30 37 H 10.013436 5.241395 -11.083874 0
M  V30 38 H 8.822580 4.192657 -10.390082 0
M  V30 39 H 10.227287 8.272174 -6.294622 0
M  V30 40 H 12.173391 9.190704 -8.227707 0
M  V30 41 H 11.992348 6.969309 -8.410107 0
M  V30 42 H 12.234836 6.804672 -6.691547 0
M  V30 43 H 9.072604 4.479267 -7.897099 0
M  V30 44 H 10.651206 5.038545 -8.344930 0
M  V30 45 H 6.215545 6.669431 -19.595921 0
M  V30 46 H 9.034843 8.017337 -10.358627 0
M  V30 47 H 10.611307 7.388208 -10.037466 0
M  V30 48 H 10.124074 5.809696 -6.057873 0
M  V30 49 H 8.612686 6.489940 -6.593198 0
M  V30 50 H 6.060804 5.897966 -15.357984 0
M  V30 51 H 6.634233 6.332599 -10.297136 0
M  V30 52 H 8.205959 2.951307 -12.350504 0
M  V30 53 H 6.036918 6.254846 -11.815033 0
M  V30 END ATOM
M  V30 BEGIN BOND
M  V30 1 1 7 2
M  V30 2 1 9 1
M  V30 3 1 9 6
M  V30 4 1 10 4
M  V30 5 1 11 8
M  V30 6 2 12 1
M  V30 7 1 13 5
M  V30 8 1 15 11
M  V30 9 1 15 12
M  V30 10 1 16 13
M  V30 11 1 16 14
M  V30 12 2 17 7
M  V30 13 1 17 9
M  V30 14 1 18 8
M  V30 15 2 19 2
M  V30 16 1 19 3
M  V30 17 1 20 6
M  V30 18 1 20 10
M  V30 19 1 20 12
M  V30 20 1 21 5
M  V30 21 1 21 8
M  V30 22 1 22 4
M  V30 23 1 22 15
M  V30 24 1 23 13
M  V30 25 1 23 18
M  V30 26 2 24 3
M  V30 27 1 24 17
M  V30 28 1 15 25 CFG=3
M  V30 29 1 26 2
M  V30 30 1 27 3
M  V30 31 1 28 4
M  V30 32 1 29 4
M  V30 33 1 30 5
M  V30 34 1 31 5
M  V30 35 1 32 7
M  V30 36 1 8 33 CFG=1
M  V30 37 1 9 34 CFG=3
M  V30 38 1 35 10
M  V30 39 1 36 10
M  V30 40 1 37 11
M  V30 41 1 38 11
M  V30 42 1 13 39 CFG=1
M  V30 43 1 40 14
M  V30 44 1 41 16
M  V30 45 1 42 16
M  V30 46 1 43 18
M  V30 47 1 44 18
M  V30 48 1 45 19
M  V30 49 1 46 21
M  V30 50 1 47 21
M  V30 51 1 48 23
M  V30 52 1 49 23
M  V30 53 1 50 24
M  V30 54 1 51 22
M  V30 55 1 20 52 CFG=1
M  V30 56 1 53 22
M  V30 END BOND
M  V30 END CTAB
M  END
>  <i_epik_Tot_Q>  (1) 
1

>  <i_epik_Tot_abs_Q>  (1) 
1

>  <i_i_glide_confnum>  (1) 
50

>  <i_i_glide_lignum>  (1) 
94

>  <i_i_glide_posenum>  (1) 
367

>  <i_i_glide_rotatable_bonds>  (1) 
5

>  <i_lp_mmshare_version>  (1) 
72125

>  <i_m_source_file_index>  (1) 
50

>  <i_f3d_flags>  (1) 
0

>  <num_sample>  (1) 
100

>  <b_lp_Chiralities_Consistent>  (1) 
1

>  <r_epik_Charging_Adjusted_Penalty>  (1) 
1.8117775797116225

>  <r_epik_Ionization_Penalty>  (1) 
0.90588925903239437

>  <r_epik_Ionization_Penalty_Charging>  (1) 
0.90588878985581123

>  <r_epik_Ionization_Penalty_Neutral>  (1) 
4.6917658313918283e-07

>  <r_epik_State_Penalty>  (1) 
0.90588878985581134

>  <r_glide_ring_energy>  (1) 
0.012110018449817897

>  <r_i_docking_score>  (1) 
-4.4969808437196503

>  <r_i_glide_ecoul>  (1) 
-6.4674205231376893

>  <r_i_glide_eff_state_penalty>  (1) 
0.90588878985581134

>  <r_i_glide_einternal>  (1) 
9.2072039160137518

>  <r_i_glide_emodel>  (1) 
-38.553798862224959

>  <r_i_glide_emodel_strain>  (1) 
0

>  <r_i_glide_energy>  (1) 
-32.910808273799468

>  <r_i_glide_erotb>  (1) 
0.63659216225735071

>  <r_i_glide_esite>  (1) 
-0.10000000000000001

>  <r_i_glide_evdw>  (1) 
-26.443387750661778

>  <r_i_glide_gscore>  (1) 
-5.4028696335754614

>  <r_i_glide_gscore_strain>  (1) 
0

>  <r_i_glide_hbond>  (1) 
-0.20000000000000001

>  <r_i_glide_ligand_efficiency>  (1) 
-0.1873742018216521

>  <r_i_glide_ligand_efficiency_ln>  (1) 
-1.0763338689068889

>  <r_i_glide_ligand_efficiency_sa>  (1) 
-0.54048072412794268

>  <r_i_glide_lipo>  (1) 
-1.3754744260336504

>  <r_i_glide_metal>  (1) 
-0

>  <r_i_glide_rewards>  (1) 
-2.0717049037954189

>  <r_lp_Energy>  (1) 
30.269361

>  <r_lp_tautomer_probability>  (1) 
0.99998600000000004

>  <s_epik_Chemistry_Notes>  (1) 
This compound has an imine and may undergo hydrolysis. This compound contains an acetal/aminal-like group ( X-CH(R)-Y where X, Y are N, S, or O) that may be acid/base labile, releasing an aldehyde.

>  <s_epik_cmdline>  (1) 
J2VwaWtfcHl0aG9uJywgJy1waHQnLCAnMS4wJywgJy1waCcsICc3LjQnLCAnLXRuJywgJzgnLCAnLW1hJywgJzUwMCcsICctaW1hZScsICc8aW5maWxlLm1hZT4nLCAnLW9tYWUnLCAnPG91dGZpbGUubWFlPic=

>  <s_epik_input>  (1) 
W2NIXTFbY0hdW2NIXVtjSF1bY0hdYzFbQ0BASF0oW05IXTIpU1tDQEBIXShbQ0BIXTIzKVtDSDJdW0NIMl1OPUMzW0NIMl1bQ0BIXTRbQ0gyXVtDSDJdW0NASF0oW0NIMl1bQ0gyXTQpW0NIMl1bT0hd

>  <s_glide_docking_method>  (1) 
confgen

>  <s_i_glide_gridfile>  (1) 
gpcr_drd2_6luq_protein_autoprepared_prepared

>  <s_lp_Force_Field>  (1) 
S-OPLS

>  <s_lp_Variant>  (1) 
DiffSBDD_49_num_sample_100-4

>  <s_m_source_file>  (1) 
generated__ligand_DiffSBDD_2026-05-06_prepared.sdf

>  <GenAI_Model>  (1) 
DiffSBDD

>  <Protein>  (1) 
generic_title2

$$$$
DiffSBDD_8_num_sample_100
     RDKit          3D

  0  0  0  0  0  0  0  0  0  0999 V3000
M  V30 BEGIN CTAB
M  V30 COUNTS 67 70 0 0 1
M  V30 BEGIN ATOM
M  V30 1 C 7.152164 6.255697 -13.262331 0
M  V30 2 C 11.150157 8.012023 -7.524633 0
M  V30 3 C 9.439556 4.468767 -17.446281 0 CFG=1
M  V30 4 C 7.412368 5.861053 -19.774376 0
M  V30 5 O 7.648298 8.117690 -11.891692 0
M  V30 6 N 11.771819 8.541093 -9.820380 0
M  V30 7 C 8.500178 5.069357 -19.692717 0
M  V30 8 O 8.128039 4.133931 -12.763666 0
M  V30 9 C 8.235063 6.958919 -12.442239 0 CFG=1
M  V30 10 C 7.658768 4.930928 -13.851754 0 CFG=2
M  V30 11 C 7.204491 3.806926 -16.773137 0
M  V30 12 C 10.993851 7.814188 -8.917990 0
M  V30 13 O 9.933110 5.369295 -14.655631 0
M  V30 14 C 11.892404 6.035523 -18.801648 0
M  V30 15 C 10.932534 4.050457 -17.392442 0
M  V30 16 O 9.570057 5.238545 -20.531770 0
M  V30 17 C 8.694258 3.936054 -18.693624 0 CFG=2
M  V30 18 O 9.270800 4.843226 -12.052627 0
M  V30 19 C 8.617074 5.102979 -15.072956 0 CFG=1
M  V30 20 C 8.801660 6.009550 -11.368914 0 CFG=1
M  V30 21 O 13.094111 3.983630 -18.410481 0
M  V30 22 C 7.409960 3.266926 -18.183178 0
M  V30 23 C 11.602206 6.500950 -20.245532 0
M  V30 24 C 12.156614 9.022103 -7.001790 0
M  V30 25 C 10.367061 7.272441 -6.618441 0
M  V30 26 C 10.105693 6.556036 -20.604380 0
M  V30 27 C 9.274884 6.130110 -8.476503 0
M  V30 28 O 9.902746 6.705072 -10.769694 0
M  V30 29 C 9.434828 6.334825 -7.093477 0
M  V30 30 C 8.608672 4.038290 -16.209291 0 CFG=2
M  V30 31 C 11.791949 4.500100 -18.597795 0 CFG=2
M  V30 32 C 10.048569 6.877584 -9.400006 0
M  V30 33 H 6.783027 6.912461 -14.051129 0
M  V30 34 H 6.296259 6.047098 -12.618194 0
M  V30 35 H 9.399929 5.557744 -17.475269 0
M  V30 36 H 6.574711 5.729076 -19.106701 0
M  V30 37 H 7.350599 6.648621 -20.510747 0
M  V30 38 H 7.434172 7.961381 -10.962376 0
M  V30 39 H 11.567578 8.512925 -10.808035 0
M  V30 40 H 12.347298 9.308844 -9.504308 0
M  V30 41 H 9.034903 7.289501 -13.091533 0
M  V30 42 H 6.767957 4.420069 -14.214058 0
M  V30 43 H 6.653885 4.747647 -16.821817 0
M  V30 44 H 6.635124 3.111604 -16.154951 0
M  V30 45 H 10.276581 4.644508 -14.146025 0
M  V30 46 H 11.235403 6.569265 -18.116950 0
M  V30 47 H 12.892406 6.375872 -18.528764 0
M  V30 48 H 10.985561 2.963868 -17.308786 0
M  V30 49 H 11.391548 4.435925 -16.483301 0
M  V30 50 H 9.281896 3.166066 -19.195143 0
M  V30 51 H 8.295150 6.025744 -15.556027 0
M  V30 52 H 7.986520 5.742690 -10.701835 0
M  V30 53 H 13.439469 4.332979 -17.603189 0
M  V30 54 H 6.542480 3.413352 -18.827232 0
M  V30 55 H 7.573498 2.189937 -18.122797 0
M  V30 56 H 12.012203 7.503545 -20.372289 0
M  V30 57 H 12.136645 5.868762 -20.955648 0
M  V30 58 H 12.246683 8.969047 -5.916825 0
M  V30 59 H 13.142242 8.853348 -7.436431 0
M  V30 60 H 11.834429 10.031792 -7.249431 0
M  V30 61 H 10.482213 7.423316 -5.555260 0
M  V30 62 H 9.610977 7.266223 -19.939029 0
M  V30 63 H 9.975795 6.929511 -21.620461 0
M  V30 64 H 8.558002 5.405441 -8.819969 0
M  V30 65 H 8.837045 5.770435 -6.394540 0
M  V30 66 H 8.983071 3.071924 -15.883876 0
M  V30 67 H 11.418594 4.022058 -19.502058 0
M  V30 END ATOM
M  V30 BEGIN BOND
M  V30 1 2 7 4
M  V30 2 1 9 1
M  V30 3 1 9 5
M  V30 4 1 10 1
M  V30 5 1 10 8
M  V30 6 2 12 2
M  V30 7 1 12 6
M  V30 8 1 15 3
M  V30 9 1 16 7
M  V30 10 1 17 3
M  V30 11 1 17 7
M  V30 12 1 18 8
M  V30 13 1 19 10
M  V30 14 1 19 13
M  V30 15 1 20 9
M  V30 16 1 20 18
M  V30 17 1 22 11
M  V30 18 1 22 17
M  V30 19 1 23 14
M  V30 20 1 24 2
M  V30 21 1 25 2
M  V30 22 1 26 16
M  V30 23 1 26 23
M  V30 24 1 28 20
M  V30 25 2 29 25
M  V30 26 1 29 27
M  V30 27 1 30 3
M  V30 28 1 30 11
M  V30 29 1 30 19
M  V30 30 1 31 14
M  V30 31 1 31 15
M  V30 32 1 31 21
M  V30 33 1 32 12
M  V30 34 2 32 27
M  V30 35 1 32 28
M  V30 36 1 33 1
M  V30 37 1 34 1
M  V30 38 1 3 35 CFG=3
M  V30 39 1 36 4
M  V30 40 1 37 4
M  V30 41 1 38 5
M  V30 42 1 39 6
M  V30 43 1 40 6
M  V30 44 1 9 41 CFG=3
M  V30 45 1 10 42 CFG=3
M  V30 46 1 43 11
M  V30 47 1 44 11
M  V30 48 1 45 13
M  V30 49 1 46 14
M  V30 50 1 47 14
M  V30 51 1 48 15
M  V30 52 1 49 15
M  V30 53 1 17 50 CFG=3
M  V30 54 1 19 51 CFG=3
M  V30 55 1 20 52 CFG=1
M  V30 56 1 53 21
M  V30 57 1 54 22
M  V30 58 1 55 22
M  V30 59 1 56 23
M  V30 60 1 57 23
M  V30 61 1 58 24
M  V30 62 1 59 24
M  V30 63 1 60 24
M  V30 64 1 61 25
M  V30 65 1 62 26
M  V30 66 1 63 26
M  V30 67 1 64 27
M  V30 68 1 65 29
M  V30 69 1 30 66 CFG=1
M  V30 70 1 31 67 CFG=3
M  V30 END BOND
M  V30 END CTAB
M  END
>  <i_epik_Tot_Q>  (1) 
0

>  <i_epik_Tot_abs_Q>  (1) 
0

>  <i_i_glide_confnum>  (1) 
19

>  <i_i_glide_lignum>  (1) 
14

>  <i_i_glide_posenum>  (1) 
137

>  <i_i_glide_rotatable_bonds>  (1) 
7

>  <i_lp_mmshare_version>  (1) 
72125

>  <i_m_source_file_index>  (1) 
9

>  <i_f3d_flags>  (1) 
0

>  <num_sample>  (1) 
100

>  <b_lp_Chiralities_Consistent>  (1) 
1

>  <r_epik_Charging_Adjusted_Penalty>  (1) 
0

>  <r_epik_Ionization_Penalty>  (1) 
0.0024140143781195595

>  <r_epik_Ionization_Penalty_Charging>  (1) 
0

>  <r_epik_Ionization_Penalty_Neutral>  (1) 
0.0024140143781195595

>  <r_epik_State_Penalty>  (1) 
-0

>  <r_glide_ring_energy>  (1) 
1.5767807932002511

>  <r_i_docking_score>  (1) 
-4.4967708726379776

>  <r_i_glide_ecoul>  (1) 
-7.1978469212170975

>  <r_i_glide_eff_state_penalty>  (1) 
-0

>  <r_i_glide_einternal>  (1) 
12.91343156040638

>  <r_i_glide_emodel>  (1) 
-32.632909122193503

>  <r_i_glide_emodel_strain>  (1) 
4.3940654681396438

>  <r_i_glide_energy>  (1) 
-34.904804864939088

>  <r_i_glide_erotb>  (1) 
0.39668203270713775

>  <r_i_glide_esite>  (1) 
-0.049438206504796099

>  <r_i_glide_evdw>  (1) 
-27.706957943721989

>  <r_i_glide_gscore>  (1) 
-4.4967708726379776

>  <r_i_glide_gscore_strain>  (1) 
0.098516367034910957

>  <r_i_glide_hbond>  (1) 
-0.33301631373282192

>  <r_i_glide_ligand_efficiency>  (1) 
-0.1405240897699368

>  <r_i_glide_ligand_efficiency_ln>  (1) 
-1.0069495757281108

>  <r_i_glide_ligand_efficiency_sa>  (1) 
-0.44613617585534282

>  <r_i_glide_lipo>  (1) 
-1.3838394001070755

>  <r_i_glide_metal>  (1) 
-0

>  <r_i_glide_rewards>  (1) 
-0.76065041666666766

>  <r_lp_Energy>  (1) 
35.494580999999997

>  <r_lp_tautomer_probability>  (1) 
1

>  <s_epik_Chemistry_Notes>  (1) 
This compound contains an acetal/aminal-like group ( X-CH(R)-Y where X, Y are N, S, or O) that may be acid/base labile, releasing an aldehyde.

>  <s_epik_cmdline>  (1) 
J2VwaWtfcHl0aG9uJywgJy1waHQnLCAnMS4wJywgJy1waCcsICc3LjQnLCAnLXRuJywgJzgnLCAnLW1hJywgJzUwMCcsICctaW1hZScsICc8aW5maWxlLm1hZT4nLCAnLW9tYWUnLCAnPG91dGZpbGUubWFlPic=

>  <s_epik_input>  (1) 
W0NIM11jMWMoW05IMl0pYyhbY0hdW2NIXVtjSF0xKU9bQ0BASF0yT09bQ0BASF0oW0NIMl1bQ0BIXTJbT0hdKVtDQEBIXShbT0hdKVtDQEhdM1tDSDJdW0NIMl1bQ0BIXShbQ0BASF0zNClDKD1bQ0gyXSlPW0NIMl1bQ0gyXVtDSDJdW0NASF0oW0NIMl00KVtPSF0=

>  <s_glide_docking_method>  (1) 
confgen

>  <s_i_glide_gridfile>  (1) 
gpcr_drd2_6luq_protein_autoprepared_prepared

>  <s_lp_Force_Field>  (1) 
S-OPLS

>  <s_lp_Variant>  (1) 
DiffSBDD_8_num_sample_100-1

>  <s_m_source_file>  (1) 
generated__ligand_DiffSBDD_2026-05-06_prepared.sdf

>  <GenAI_Model>  (1) 
DiffSBDD

>  <Protein>  (1) 
generic_title2

$$$$
DiffSBDD_59_num_sample_100
     RDKit          3D

  0  0  0  0  0  0  0  0  0  0999 V3000
M  V30 BEGIN CTAB
M  V30 COUNTS 74 77 0 0 1
M  V30 BEGIN ATOM
M  V30 1 C 8.404956 4.057237 -11.561718 0
M  V30 2 N 8.322681 2.066385 -17.264128 0 CFG=1 CHG=1
M  V30 3 C 9.321519 2.081497 -18.364906 0
M  V30 4 C 7.942643 3.414580 -16.710071 0 CFG=1
M  V30 5 C 10.853168 7.022306 -11.143156 0
M  V30 6 C 9.169501 5.305438 -12.027427 0 CFG=2
M  V30 7 C 13.151272 8.348856 -1.488034 0
M  V30 8 C 12.029358 9.108102 -4.340641 0
M  V30 9 C 9.198707 6.104243 -9.596613 0
M  V30 10 C 11.835000 7.849500 -3.736514 0
M  V30 11 O 7.035372 5.734015 -14.973591 0
M  V30 12 O 11.834452 8.859221 -1.533689 0
M  V30 13 C 11.411376 6.784785 -4.551812 0
M  V30 14 C 9.729895 6.896349 -8.560476 0
M  V30 15 C 10.180089 0.806636 -18.364008 0
M  V30 16 C 9.754473 6.163349 -10.894675 0
M  V30 17 C 11.434100 8.316719 -6.434990 0
M  V30 18 C 11.366683 7.824406 -10.108376 0
M  V30 19 N 11.836995 9.344004 -5.655107 0
M  V30 20 C 7.170973 1.161988 -17.583727 0
M  V30 21 N 9.163513 4.952157 -14.941035 0
M  V30 22 C 11.495085 7.080410 -12.511094 0
M  V30 23 C 7.038380 4.169477 -17.715643 0
M  V30 24 O 7.256733 3.004733 -15.544691 0
M  V30 25 N 11.354420 8.592968 -7.812124 0
M  V30 26 C 8.110671 5.597964 -14.397056 0
M  V30 27 C 10.819567 7.761259 -8.815544 0
M  V30 28 C 9.500177 -0.441597 -18.901352 0
M  V30 29 C 11.206155 7.015574 -5.920804 0
M  V30 30 C 8.307300 6.171621 -12.985747 0
M  V30 31 C 6.190888 -1.127377 -17.170612 0
M  V30 32 C 12.070110 7.649642 -2.269544 0 CFG=2
M  V30 33 C 7.493952 -0.323734 -17.342169 0 CFG=1
M  V30 34 C 9.157294 4.316902 -16.278494 0
M  V30 35 C 8.330524 -0.936517 -18.454574 0
M  V30 36 H 9.032441 3.458800 -10.900813 0
M  V30 37 H 7.482569 4.310378 -11.037487 0
M  V30 38 H 8.127155 3.424473 -12.405748 0
M  V30 39 H 8.829849 2.215743 -19.329604 0
M  V30 40 H 10.004076 2.924358 -18.280266 0
M  V30 41 H 10.019459 4.879183 -12.551370 0
M  V30 42 H 13.435730 7.983130 -0.505183 0
M  V30 43 H 13.864136 8.967405 -2.012177 0
M  V30 44 H 12.354430 9.951046 -3.751420 0
M  V30 45 H 8.357014 5.462510 -9.393845 0
M  V30 46 H 11.255877 5.800788 -4.133790 0
M  V30 47 H 9.277143 6.858854 -7.582000 0
M  V30 48 H 11.050040 0.979089 -18.998710 0
M  V30 49 H 10.578143 0.601393 -17.370731 0
M  V30 50 H 12.198568 8.485945 -10.305800 0
M  V30 51 H 6.290775 1.403658 -16.988391 0
M  V30 52 H 6.845014 1.310277 -18.614910 0
M  V30 53 H 10.018475 4.886477 -14.403473 0
M  V30 54 H 12.525493 7.429754 -12.446448 0
M  V30 55 H 11.536164 6.169021 -13.074479 0
M  V30 56 H 10.916681 7.769248 -13.091606 0
M  V30 57 H 7.615115 4.499317 -18.580088 0
M  V30 58 H 6.235518 3.554661 -18.113134 0
M  V30 59 H 6.583780 5.061706 -17.289062 0
M  V30 60 H 6.945963 3.795889 -15.116246 0
M  V30 61 H 11.807914 9.439429 -8.120358 0
M  V30 62 H 10.016881 -0.958780 -19.698109 0
M  V30 63 H 10.921132 6.200583 -6.561365 0
M  V30 64 H 8.738804 7.163709 -13.091452 0
M  V30 65 H 7.330137 6.344185 -12.531944 0
M  V30 66 H 6.391387 -2.187843 -17.014086 0
M  V30 67 H 5.619315 -0.780712 -16.308826 0
M  V30 68 H 5.551246 -1.041912 -18.050412 0
M  V30 69 H 11.588930 6.764782 -1.858677 0
M  V30 70 H 8.053045 -0.426030 -16.410280 0
M  V30 71 H 10.069730 3.724386 -16.291517 0
M  V30 72 H 9.327876 5.098793 -17.019512 0
M  V30 73 H 7.937315 -1.837168 -18.905541 0
M  V30 74 H 8.782097 1.630643 -16.478705 0
M  V30 END ATOM
M  V30 BEGIN BOND
M  V30 1 1 3 2
M  V30 2 1 4 2
M  V30 3 1 6 1
M  V30 4 2 10 8
M  V30 5 1 12 7
M  V30 6 1 13 10
M  V30 7 2 14 9
M  V30 8 1 15 3
M  V30 9 2 16 5
M  V30 10 1 16 6
M  V30 11 1 16 9
M  V30 12 1 18 5
M  V30 13 1 19 8
M  V30 14 2 19 17
M  V30 15 1 20 2
M  V30 16 1 22 5
M  V30 17 1 23 4
M  V30 18 1 4 24 CFG=1
M  V30 19 1 25 17
M  V30 20 2 26 11
M  V30 21 1 26 21
M  V30 22 1 27 14
M  V30 23 2 27 18
M  V30 24 1 27 25
M  V30 25 1 28 15
M  V30 26 2 29 13
M  V30 27 1 29 17
M  V30 28 1 30 6
M  V30 29 1 30 26
M  V30 30 1 32 7
M  V30 31 1 32 10
M  V30 32 1 32 12
M  V30 33 1 33 20
M  V30 34 1 33 31
M  V30 35 1 34 4
M  V30 36 1 34 21
M  V30 37 2 35 28
M  V30 38 1 35 33
M  V30 39 1 36 1
M  V30 40 1 37 1
M  V30 41 1 38 1
M  V30 42 1 39 3
M  V30 43 1 40 3
M  V30 44 1 6 41 CFG=3
M  V30 45 1 42 7
M  V30 46 1 43 7
M  V30 47 1 44 8
M  V30 48 1 45 9
M  V30 49 1 46 13
M  V30 50 1 47 14
M  V30 51 1 48 15
M  V30 52 1 49 15
M  V30 53 1 50 18
M  V30 54 1 51 20
M  V30 55 1 52 20
M  V30 56 1 53 21
M  V30 57 1 54 22
M  V30 58 1 55 22
M  V30 59 1 56 22
M  V30 60 1 57 23
M  V30 61 1 58 23
M  V30 62 1 59 23
M  V30 63 1 60 24
M  V30 64 1 61 25
M  V30 65 1 62 28
M  V30 66 1 63 29
M  V30 67 1 64 30
M  V30 68 1 65 30
M  V30 69 1 66 31
M  V30 70 1 67 31
M  V30 71 1 68 31
M  V30 72 1 32 69 CFG=1
M  V30 73 1 33 70 CFG=1
M  V30 74 1 71 34
M  V30 75 1 72 34
M  V30 76 1 73 35
M  V30 77 1 2 74 CFG=1
M  V30 END BOND
M  V30 END CTAB
M  END
>  <i_epik_Tot_Q>  (1) 
1

>  <i_epik_Tot_abs_Q>  (1) 
1

>  <i_i_glide_confnum>  (1) 
946

>  <i_i_glide_lignum>  (1) 
119

>  <i_i_glide_posenum>  (1) 
215

>  <i_i_glide_rotatable_bonds>  (1) 
11

>  <i_lp_mmshare_version>  (1) 
72125

>  <i_m_source_file_index>  (1) 
60

>  <i_f3d_flags>  (1) 
0

>  <num_sample>  (1) 
100

>  <b_lp_Chiralities_Consistent>  (1) 
1

>  <r_epik_Charging_Adjusted_Penalty>  (1) 
1.3886415501160498

>  <r_epik_Ionization_Penalty>  (1) 
0.71269190361940904

>  <r_epik_Ionization_Penalty_Charging>  (1) 
0.69432077505802503

>  <r_epik_Ionization_Penalty_Neutral>  (1) 
0.018371128561383968

>  <r_epik_State_Penalty>  (1) 
0.69432077505802492

>  <r_glide_ring_energy>  (1) 
0

>  <r_i_docking_score>  (1) 
-4.4927644925712125

>  <r_i_glide_ecoul>  (1) 
-3.4731725789094332

>  <r_i_glide_eff_state_penalty>  (1) 
0.69432077505802492

>  <r_i_glide_einternal>  (1) 
13.915770445337532

>  <r_i_glide_emodel>  (1) 
-38.477389791988656

>  <r_i_glide_emodel_strain>  (1) 
3.741508770548478

>  <r_i_glide_energy>  (1) 
-37.649091868753331

>  <r_i_glide_erotb>  (1) 
0.88120926584797454

>  <r_i_glide_esite>  (1) 
0

>  <r_i_glide_evdw>  (1) 
-34.175919289843897

>  <r_i_glide_gscore>  (1) 
-5.1870852676292376

>  <r_i_glide_gscore_strain>  (1) 
0

>  <r_i_glide_hbond>  (1) 
0

>  <r_i_glide_ligand_efficiency>  (1) 
-0.12836469978774892

>  <r_i_glide_ligand_efficiency_ln>  (1) 
-0.98626151765497838

>  <r_i_glide_ligand_efficiency_sa>  (1) 
-0.41988944489317798

>  <r_i_glide_lipo>  (1) 
-2.6334609111494731

>  <r_i_glide_metal>  (1) 
-0

>  <r_i_glide_rewards>  (1) 
-1.2050617709991296

>  <r_lp_Energy>  (1) 
34.238330999999995

>  <r_lp_tautomer_probability>  (1) 
0.99999977220005165

>  <s_epik_cmdline>  (1) 
J2VwaWtfcHl0aG9uJywgJy1waHQnLCAnMS4wJywgJy1waCcsICc3LjQnLCAnLXRuJywgJzgnLCAnLW1hJywgJzUwMCcsICctaW1hZScsICc8aW5maWxlLm1hZT4nLCAnLW9tYWUnLCAnPG91dGZpbGUubWFlPic=

>  <s_epik_input>  (1) 
W0NIMl0xW0NAQEhdKFtDSDNdKVtDSF09W0NIXVtDSDJdW0NIMl1OMVtDQEBdKFtDSDNdKShbT0hdKVtDSDJdW05IXUMoPU8pW0NIMl1bQ0BIXShbQ0gzXSljKGMyW0NIM10pW2NIXVtjSF1jKFtjSF0yKVtOSF1jKFtjSF1bY0hdMyluW2NIXWMzW0NASF00W0NIMl1PNA==

>  <s_glide_docking_method>  (1) 
confgen

>  <s_i_glide_gridfile>  (1) 
gpcr_drd2_6luq_protein_autoprepared_prepared

>  <s_lp_Force_Field>  (1) 
S-OPLS

>  <s_lp_Variant>  (1) 
DiffSBDD_59_num_sample_100-3

>  <s_m_source_file>  (1) 
generated__ligand_DiffSBDD_2026-05-06_prepared.sdf

>  <GenAI_Model>  (1) 
DiffSBDD

>  <Protein>  (1) 
generic_title2

$$$$
DiffSBDD_76_num_sample_100
     RDKit          3D

  0  0  0  0  0  0  0  0  0  0999 V3000
M  V30 BEGIN CTAB
M  V30 COUNTS 78 81 0 0 1
M  V30 BEGIN ATOM
M  V30 1 C 7.572328 3.465960 -17.145749 0
M  V30 2 C 12.634730 3.732413 -17.858361 0
M  V30 3 C 7.110376 6.481623 -14.749256 0
M  V30 4 N 7.988822 4.520247 -16.191193 0 CFG=2 CHG=1
M  V30 5 C 13.970640 4.187892 -18.081451 0
M  V30 6 C 11.419544 8.612509 -5.572105 0
M  V30 7 C 11.434830 9.369422 -6.673438 0
M  V30 8 C 9.626951 7.101537 -8.790050 0 CFG=1
M  V30 9 C 10.014243 2.882987 -17.429079 0
M  V30 10 N 8.634295 6.340836 -11.091720 0 CFG=2 CHG=1
M  V30 11 C 9.246697 4.990919 -11.214355 0
M  V30 12 C 10.326059 4.229873 -17.163156 0
M  V30 13 C 11.444644 8.792145 -8.083913 0
M  V30 14 C 12.020865 6.015028 -17.143604 0
M  V30 15 C 11.027760 2.032823 -17.891797 0
M  V30 16 C 10.853294 7.490872 -11.131695 0
M  V30 17 C 8.615406 2.352430 -17.205376 0
M  V30 18 C 8.016571 6.904484 -12.346615 0
M  V30 19 N 12.293286 2.435025 -18.094561 0
M  V30 20 O 8.111169 4.169329 -11.164917 0
M  V30 21 O 15.997225 7.325382 -17.891636 0
M  V30 22 C 11.069666 7.281410 -8.174269 0 CFG=1
M  V30 23 C 14.317757 5.568713 -17.842507 0
M  V30 24 C 7.541468 5.872692 -13.407386 0
M  V30 25 N 8.428027 6.169316 -6.796845 0 CHG=1
M  V30 26 C 9.523829 7.307154 -10.367715 0 CFG=2
M  V30 27 O 14.904625 3.287956 -18.528192 0 CHG=-1
M  V30 28 C 6.848441 5.428859 -15.850247 0
M  V30 29 C 11.662041 4.672832 -17.384288 0
M  V30 30 C 9.237079 5.195594 -16.653078 0
M  V30 31 C 8.839457 5.899156 -8.186117 0
M  V30 32 C 11.395401 7.179248 -5.657052 0
M  V30 33 C 11.260847 6.551299 -6.834382 0
M  V30 34 C 15.720458 6.140238 -18.080012 0
M  V30 35 C 13.328693 6.455475 -17.372782 0
M  V30 36 C 16.814122 5.193835 -18.574947 0
M  V30 37 H 6.634866 3.011885 -16.837060 0
M  V30 38 H 7.415559 3.904160 -18.133199 0
M  V30 39 H 6.195218 7.056316 -14.593457 0
M  V30 40 H 7.834996 7.209226 -15.091457 0
M  V30 41 H 11.437332 9.087280 -4.600814 0
M  V30 42 H 11.462263 10.446357 -6.585753 0
M  V30 43 H 9.056190 7.948441 -8.400736 0
M  V30 44 H 9.840582 4.728737 -10.348390 0
M  V30 45 H 9.857874 4.850870 -12.106578 0
M  V30 46 H 12.452237 8.940938 -8.475906 0
M  V30 47 H 10.790707 9.369304 -8.731225 0
M  V30 48 H 11.290143 6.715220 -16.786355 0
M  V30 49 H 10.817915 0.992897 -18.097170 0
M  V30 50 H 11.475151 8.269574 -10.692463 0
M  V30 51 H 11.443404 6.588049 -11.196997 0
M  V30 52 H 10.672006 7.769304 -12.165393 0
M  V30 53 H 8.356588 1.646680 -17.996560 0
M  V30 54 H 8.613763 1.787441 -16.272068 0
M  V30 55 H 7.171187 7.523470 -12.042417 0
M  V30 56 H 8.698807 7.587841 -12.842624 0
M  V30 57 H 8.395643 3.264536 -11.140524 0
M  V30 58 H 11.789727 6.810840 -8.837669 0
M  V30 59 H 8.345847 5.176067 -13.629524 0
M  V30 60 H 6.714217 5.283141 -13.009319 0
M  V30 61 H 8.100562 5.328458 -6.351180 0
M  V30 62 H 9.184835 6.576444 -6.265093 0
M  V30 63 H 9.034925 8.275918 -10.473898 0
M  V30 64 H 6.020399 4.818069 -15.492025 0
M  V30 65 H 6.502085 5.925242 -16.757899 0
M  V30 66 H 8.996957 5.889211 -17.460196 0
M  V30 67 H 9.626574 5.769350 -15.814040 0
M  V30 68 H 7.909812 5.707856 -8.720190 0
M  V30 69 H 9.422586 4.979465 -8.214733 0
M  V30 70 H 11.500180 6.594572 -4.753971 0
M  V30 71 H 11.262770 5.470914 -6.864851 0
M  V30 72 H 13.579923 7.491454 -17.189023 0
M  V30 73 H 16.558839 4.776939 -19.548857 0
M  V30 74 H 17.751049 5.739807 -18.688384 0
M  V30 75 H 16.987826 4.395086 -17.857511 0
M  V30 76 H 7.631871 6.817170 -6.856113 0
M  V30 77 H 8.234186 4.032782 -15.341744 0
M  V30 78 H 7.836346 6.240427 -10.474805 0
M  V30 END ATOM
M  V30 BEGIN BOND
M  V30 1 1 4 1
M  V30 2 2 5 2
M  V30 3 2 7 6
M  V30 4 1 11 10
M  V30 5 2 12 9
M  V30 6 1 13 7
M  V30 7 1 15 9
M  V30 8 1 17 1
M  V30 9 1 17 9
M  V30 10 1 18 10
M  V30 11 1 19 2
M  V30 12 2 19 15
M  V30 13 1 20 11
M  V30 14 1 22 8
M  V30 15 1 22 13
M  V30 16 1 23 5
M  V30 17 1 24 3
M  V30 18 1 24 18
M  V30 19 1 26 8
M  V30 20 1 26 10
M  V30 21 1 26 16
M  V30 22 1 27 5
M  V30 23 1 28 3
M  V30 24 1 28 4
M  V30 25 1 29 2
M  V30 26 1 29 12
M  V30 27 2 29 14
M  V30 28 1 30 4
M  V30 29 1 30 12
M  V30 30 1 31 8
M  V30 31 1 31 25
M  V30 32 1 32 6
M  V30 33 1 33 22
M  V30 34 2 33 32
M  V30 35 2 34 21
M  V30 36 1 34 23
M  V30 37 1 35 14
M  V30 38 2 35 23
M  V30 39 1 36 34
M  V30 40 1 37 1
M  V30 41 1 38 1
M  V30 42 1 39 3
M  V30 43 1 40 3
M  V30 44 1 41 6
M  V30 45 1 42 7
M  V30 46 1 8 43 CFG=1
M  V30 47 1 44 11
M  V30 48 1 45 11
M  V30 49 1 46 13
M  V30 50 1 47 13
M  V30 51 1 48 14
M  V30 52 1 49 15
M  V30 53 1 50 16
M  V30 54 1 51 16
M  V30 55 1 52 16
M  V30 56 1 53 17
M  V30 57 1 54 17
M  V30 58 1 55 18
M  V30 59 1 56 18
M  V30 60 1 57 20
M  V30 61 1 22 58 CFG=3
M  V30 62 1 59 24
M  V30 63 1 60 24
M  V30 64 1 61 25
M  V30 65 1 62 25
M  V30 66 1 26 63 CFG=1
M  V30 67 1 64 28
M  V30 68 1 65 28
M  V30 69 1 66 30
M  V30 70 1 67 30
M  V30 71 1 68 31
M  V30 72 1 69 31
M  V30 73 1 70 32
M  V30 74 1 71 33
M  V30 75 1 72 35
M  V30 76 1 73 36
M  V30 77 1 74 36
M  V30 78 1 75 36
M  V30 79 1 76 25
M  V30 80 1 4 77 CFG=1
M  V30 81 1 10 78 CFG=1
M  V30 END BOND
M  V30 END CTAB
M  END
>  <i_epik_Tot_Q>  (1) 
2

>  <i_epik_Tot_abs_Q>  (1) 
4

>  <i_i_glide_confnum>  (1) 
250

>  <i_i_glide_lignum>  (1) 
157

>  <i_i_glide_posenum>  (1) 
291

>  <i_i_glide_rotatable_bonds>  (1) 
12

>  <i_lp_mmshare_version>  (1) 
72125

>  <i_m_source_file_index>  (1) 
77

>  <i_f3d_flags>  (1) 
0

>  <num_sample>  (1) 
100

>  <b_lp_Chiralities_Consistent>  (1) 
1

>  <r_epik_Charging_Adjusted_Penalty>  (1) 
2.7385366295040585

>  <r_epik_Ionization_Penalty>  (1) 
1.4403839023663505

>  <r_epik_Ionization_Penalty_Charging>  (1) 
1.4088334024277234

>  <r_epik_Ionization_Penalty_Neutral>  (1) 
0.03155049993862722

>  <r_epik_State_Penalty>  (1) 
1.3297032270763354

>  <r_glide_ring_energy>  (1) 
0.68305203791256774

>  <r_i_docking_score>  (1) 
-4.491851590847995

>  <r_i_glide_ecoul>  (1) 
-9.7628419925972345

>  <r_i_glide_eff_state_penalty>  (1) 
1.3297032270763354

>  <r_i_glide_einternal>  (1) 
27.613094630529346

>  <r_i_glide_emodel>  (1) 
-42.047012027429794

>  <r_i_glide_emodel_strain>  (1) 
1.349890230772445

>  <r_i_glide_energy>  (1) 
-38.193009955257999

>  <r_i_glide_erotb>  (1) 
0.66625950385389887

>  <r_i_glide_esite>  (1) 
-0.17279715761003678

>  <r_i_glide_evdw>  (1) 
-28.430167962660764

>  <r_i_glide_gscore>  (1) 
-5.8215548179243299

>  <r_i_glide_gscore_strain>  (1) 
0

>  <r_i_glide_hbond>  (1) 
-0.27571347261929818

>  <r_i_glide_ligand_efficiency>  (1) 
-0.12477365530133319

>  <r_i_glide_ligand_efficiency_ln>  (1) 
-0.98000066131743924

>  <r_i_glide_ligand_efficiency_sa>  (1) 
-0.41199353238365766

>  <r_i_glide_lipo>  (1) 
-2.2829818931072241

>  <r_i_glide_metal>  (1) 
-0

>  <r_i_glide_rewards>  (1) 
-0.87038710141904552

>  <r_lp_Energy>  (1) 
78.881341999999989

>  <r_lp_tautomer_probability>  (1) 
0.99995000000000001

>  <s_epik_Chemistry_Notes>  (1) 
This compound contains an acetal/aminal-like group ( X-CH(R)-Y where X, Y are N, S, or O) that may be acid/base labile, releasing an aldehyde.

>  <s_epik_cmdline>  (1) 
J2VwaWtfcHl0aG9uJywgJy1waHQnLCAnMS4wJywgJy1waCcsICc3LjQnLCAnLXRuJywgJzgnLCAnLW1hJywgJzUwMCcsICctaW1hZScsICc8aW5maWxlLm1hZT4nLCAnLW9tYWUnLCAnPG91dGZpbGUubWFlPic=

>  <s_epik_input>  (1) 
Tz1DKFtDSDNdKWMoYzFbT0hdKVtjSF1bY0hdYyhjMTIpYzNjKFtjSF1uMilbQ0gyXVtDSDJdTihbQ0gyXTMpW0NIMl1bQ0gyXVtDSDJdW0NIMl1OKFtDSDJdW09IXSlbQ0BIXShbQ0gzXSlbQ0BASF0oW0NIMl1bTkgyXSlbQ0BIXTRbQ0gyXVtDSF09W0NIXVtDSF09W0NIXTQ=

>  <s_glide_docking_method>  (1) 
confgen

>  <s_i_glide_gridfile>  (1) 
gpcr_drd2_6luq_protein_autoprepared_prepared

>  <s_lp_Force_Field>  (1) 
S-OPLS

>  <s_lp_Variant>  (1) 
DiffSBDD_76_num_sample_100-6

>  <s_m_source_file>  (1) 
generated__ligand_DiffSBDD_2026-05-06_prepared.sdf

>  <GenAI_Model>  (1) 
DiffSBDD

>  <Protein>  (1) 
generic_title2

$$$$
DiffSBDD_67_num_sample_100
     RDKit          3D

  0  0  0  0  0  0  0  0  0  0999 V3000
M  V30 BEGIN CTAB
M  V30 COUNTS 79 83 0 0 1
M  V30 BEGIN ATOM
M  V30 1 C 9.655831 4.384603 -18.236660 0 CFG=2
M  V30 2 C 10.867905 6.175123 -19.774896 0 CFG=1
M  V30 3 C 10.408115 7.525280 -20.356929 0
M  V30 4 C 12.408995 6.151882 -19.575155 0 CFG=1
M  V30 5 C 8.127864 4.375780 -14.670777 0
M  V30 6 C 7.329325 4.990192 -17.105741 0
M  V30 7 C 10.070729 7.824862 -8.177336 0
M  V30 8 C 11.785810 7.550489 -9.891710 0
M  V30 9 C 12.979160 6.003452 -17.054789 0 CFG=2
M  V30 10 C 8.915363 5.337198 -9.714528 0
M  V30 11 C 9.178471 4.916894 -13.673664 0
M  V30 12 C 11.009689 8.450561 -7.338917 0
M  V30 13 C 9.812639 6.428648 -11.839119 0
M  V30 14 O 9.434845 4.969470 -8.638121 0 CHG=-1
M  V30 15 F 14.002751 8.310587 -9.460340 0
M  V30 16 C 6.423435 6.348585 -13.660439 0
M  V30 17 O 8.014560 4.725590 -10.335997 0
M  V30 18 C 12.886335 6.908876 -18.305946 0
M  V30 19 C 12.119442 4.732239 -17.203147 0 CFG=2
M  V30 20 C 10.458912 7.362367 -9.454851 0
M  V30 21 C 12.699500 3.891512 -18.362053 0
M  V30 22 N 6.466255 6.179545 -15.118679 0
M  V30 23 C 7.726171 6.911442 -13.064579 0
M  V30 24 N 8.685670 5.860420 -12.632920 0 CFG=1 CHG=1
M  V30 25 C 12.987519 4.721698 -19.629073 0
M  V30 26 C 7.646897 5.469410 -15.656122 0 CFG=1
M  V30 27 C 7.490845 3.500681 -19.116221 0
M  V30 28 C 9.435007 6.657198 -10.352650 0 CFG=2
M  V30 29 O 12.635776 6.729435 -15.891859 0
M  V30 30 C 10.636074 5.086807 -17.331861 0 CFG=1
M  V30 31 C 10.050685 5.824656 -18.529982 0 CFG=2
M  V30 32 O 10.634912 8.887008 -6.102583 0
M  V30 33 C 12.336698 8.618395 -7.773349 0
M  V30 34 C 6.234510 7.478523 -15.753442 0
M  V30 35 C 12.723036 8.169230 -9.049615 0
M  V30 36 C 8.232079 3.957758 -17.846648 0 CFG=1
M  V30 37 H 10.084121 3.662377 -18.924119 0
M  V30 38 H 10.618969 5.431667 -20.533669 0
M  V30 39 H 10.634690 8.354008 -19.685384 0
M  V30 40 H 10.895630 7.731784 -21.310071 0
M  V30 41 H 9.333039 7.527090 -20.539490 0
M  V30 42 H 12.834129 6.673752 -20.433751 0
M  V30 43 H 7.304649 3.863201 -14.172918 0
M  V30 44 H 8.634859 3.589189 -15.219293 0
M  V30 45 H 6.327526 4.573087 -17.083333 0
M  V30 46 H 7.237918 5.856158 -17.758547 0
M  V30 47 H 9.051267 7.686673 -7.841530 0
M  V30 48 H 12.092097 7.204405 -10.865060 0
M  V30 49 H 9.747864 8.628938 -5.899419 0
M  V30 50 H 14.017395 5.692301 -16.929627 0
M  V30 51 H 10.003417 5.379350 -14.213333 0
M  V30 52 H 9.615742 4.068540 -13.144990 0
M  V30 53 H 10.150129 7.359284 -12.297499 0
M  V30 54 H 10.653497 5.739179 -11.891656 0
M  V30 55 H 6.160583 5.410327 -13.171255 0
M  V30 56 H 5.597224 7.017213 -13.411897 0
M  V30 57 H 13.870171 7.341574 -18.489399 0
M  V30 58 H 12.235131 7.763023 -18.119393 0
M  V30 59 H 12.217576 4.136597 -16.293796 0
M  V30 60 H 12.076710 3.027212 -18.585280 0
M  V30 61 H 13.641829 3.454840 -18.029905 0
M  V30 62 H 7.436691 7.482675 -12.182795 0
M  V30 63 H 8.208420 7.626677 -13.725341 0
M  V30 64 H 12.629729 4.193672 -20.513817 0
M  V30 65 H 14.069113 4.796922 -19.753101 0
M  V30 66 H 8.463321 6.171340 -15.733932 0
M  V30 67 H 7.342764 4.330061 -19.809247 0
M  V30 68 H 8.044966 2.724170 -19.644449 0
M  V30 69 H 6.510091 3.086773 -18.878527 0
M  V30 70 H 8.634842 7.374348 -10.362077 0
M  V30 71 H 11.775691 7.098317 -16.019159 0
M  V30 72 H 10.257372 5.435179 -16.384746 0
M  V30 73 H 9.299460 6.570461 -18.291044 0
M  V30 74 H 13.060963 9.090171 -7.126419 0
M  V30 75 H 6.134749 7.402348 -16.834566 0
M  V30 76 H 5.302484 7.916520 -15.394246 0
M  V30 77 H 7.034834 8.183923 -15.530507 0
M  V30 78 H 8.327225 3.061855 -17.235956 0
M  V30 79 H 8.189592 5.286356 -11.944864 0
M  V30 END ATOM
M  V30 BEGIN BOND
M  V30 1 1 3 2
M  V30 2 1 4 2
M  V30 3 1 11 5
M  V30 4 2 12 7
M  V30 5 1 14 10
M  V30 6 2 17 10
M  V30 7 1 18 4
M  V30 8 1 18 9
M  V30 9 1 19 9
M  V30 10 1 20 7
M  V30 11 2 20 8
M  V30 12 1 21 19
M  V30 13 1 22 16
M  V30 14 1 23 16
M  V30 15 1 24 11
M  V30 16 1 24 13
M  V30 17 1 24 23
M  V30 18 1 25 4
M  V30 19 1 25 21
M  V30 20 1 26 5
M  V30 21 1 26 6
M  V30 22 1 26 22
M  V30 23 1 28 10
M  V30 24 1 28 13
M  V30 25 1 28 20
M  V30 26 1 29 9
M  V30 27 1 30 1
M  V30 28 1 30 19
M  V30 29 1 31 1
M  V30 30 1 31 2
M  V30 31 1 31 30
M  V30 32 1 32 12
M  V30 33 1 33 12
M  V30 34 1 34 22
M  V30 35 1 35 8
M  V30 36 1 35 15
M  V30 37 2 35 33
M  V30 38 1 36 1
M  V30 39 1 36 6
M  V30 40 1 36 27
M  V30 41 1 1 37 CFG=3
M  V30 42 1 2 38 CFG=3
M  V30 43 1 39 3
M  V30 44 1 40 3
M  V30 45 1 41 3
M  V30 46 1 4 42 CFG=3
M  V30 47 1 43 5
M  V30 48 1 44 5
M  V30 49 1 45 6
M  V30 50 1 46 6
M  V30 51 1 47 7
M  V30 52 1 48 8
M  V30 53 1 49 32
M  V30 54 1 9 50 CFG=1
M  V30 55 1 51 11
M  V30 56 1 52 11
M  V30 57 1 53 13
M  V30 58 1 54 13
M  V30 59 1 55 16
M  V30 60 1 56 16
M  V30 61 1 57 18
M  V30 62 1 58 18
M  V30 63 1 19 59 CFG=1
M  V30 64 1 60 21
M  V30 65 1 61 21
M  V30 66 1 62 23
M  V30 67 1 63 23
M  V30 68 1 64 25
M  V30 69 1 65 25
M  V30 70 1 26 66 CFG=3
M  V30 71 1 67 27
M  V30 72 1 68 27
M  V30 73 1 69 27
M  V30 74 1 28 70 CFG=3
M  V30 75 1 71 29
M  V30 76 1 30 72 CFG=1
M  V30 77 1 31 73 CFG=1
M  V30 78 1 74 33
M  V30 79 1 75 34
M  V30 80 1 76 34
M  V30 81 1 77 34
M  V30 82 1 36 78 CFG=1
M  V30 83 1 24 79 CFG=1
M  V30 END BOND
M  V30 END CTAB
M  END
>  <i_epik_Tot_Q>  (1) 
0

>  <i_epik_Tot_abs_Q>  (1) 
2

>  <i_i_glide_confnum>  (1) 
269

>  <i_i_glide_lignum>  (1) 
134

>  <i_i_glide_posenum>  (1) 
174

>  <i_i_glide_rotatable_bonds>  (1) 
9

>  <i_lp_mmshare_version>  (1) 
72125

>  <i_m_source_file_index>  (1) 
68

>  <i_f3d_flags>  (1) 
0

>  <num_sample>  (1) 
100

>  <b_lp_Chiralities_Consistent>  (1) 
1

>  <r_epik_Charging_Adjusted_Penalty>  (1) 
0.12241089881330544

>  <r_epik_Ionization_Penalty>  (1) 
0.01898901772236716

>  <r_epik_Ionization_Penalty_Charging>  (1) 
0.00080544074301080722

>  <r_epik_Ionization_Penalty_Neutral>  (1) 
0.018183576979356353

>  <r_epik_State_Penalty>  (1) 
0.12160545807029463

>  <r_glide_ring_energy>  (1) 
0.36222063080148631

>  <r_i_docking_score>  (1) 
-4.4849842319484283

>  <r_i_glide_ecoul>  (1) 
-1.6635309489271579

>  <r_i_glide_eff_state_penalty>  (1) 
0.12160545807029463

>  <r_i_glide_einternal>  (1) 
16.683870320564548

>  <r_i_glide_emodel>  (1) 
-29.792403997165181

>  <r_i_glide_emodel_strain>  (1) 
2.0544655923529831

>  <r_i_glide_energy>  (1) 
-34.913963176709551

>  <r_i_glide_erotb>  (1) 
0.48522832276191719

>  <r_i_glide_esite>  (1) 
-0.10359168809608324

>  <r_i_glide_evdw>  (1) 
-33.25043222778239

>  <r_i_glide_gscore>  (1) 
-4.6065896900187226

>  <r_i_glide_gscore_strain>  (1) 
0

>  <r_i_glide_hbond>  (1) 
0

>  <r_i_glide_ligand_efficiency>  (1) 
-0.12458289533190078

>  <r_i_glide_ligand_efficiency_ln>  (1) 
-0.97850238914015009

>  <r_i_glide_ligand_efficiency_sa>  (1) 
-0.41136365684259046

>  <r_i_glide_lipo>  (1) 
-2.3598899298298095

>  <r_i_glide_metal>  (1) 
-0

>  <r_i_glide_rewards>  (1) 
-0.71628514112655328

>  <r_lp_Energy>  (1) 
56.711821999999998

>  <r_lp_tautomer_probability>  (1) 
0.99999999999736477

>  <s_epik_cmdline>  (1) 
J2VwaWtfcHl0aG9uJywgJy1waHQnLCAnMS4wJywgJy1waCcsICc3LjQnLCAnLXRuJywgJzgnLCAnLW1hJywgJzUwMCcsICctaW1hZScsICc8aW5maWxlLm1hZT4nLCAnLW9tYWUnLCAnPG91dGZpbGUubWFlPic=

>  <s_epik_input>  (1) 
W0NIM11bQ0BASF0oW0NAQEhdMTIpW0NAQEhdM1tDQEhdKFtDQEhdKFtDQEBIXShbQ0gyXTEpW09IXSlbQ0gyXVtDSDJdMilbQ0BIXTNbQ0BIXShbQ0gzXSlbQ0gyXVtDQEBIXTRbQ0gyXVtDSDJdTihbQ0gyXVtDSDJdTjRbQ0gzXSlbQ0gyXVtDQEBIXShDKD1PKVtPSF0pQyg9W0NIXUM1PU8pW0NIMl1DKEYpPVtDSF01

>  <s_glide_docking_method>  (1) 
confgen

>  <s_i_glide_gridfile>  (1) 
gpcr_drd2_6luq_protein_autoprepared_prepared

>  <s_lp_Force_Field>  (1) 
S-OPLS

>  <s_lp_Variant>  (1) 
DiffSBDD_67_num_sample_100-2

>  <s_m_source_file>  (1) 
generated__ligand_DiffSBDD_2026-05-06_prepared.sdf

>  <GenAI_Model>  (1) 
DiffSBDD

>  <Protein>  (1) 
generic_title2

$$$$
DiffSBDD_8_num_sample_100
     RDKit          3D

  0  0  0  0  0  0  0  0  0  0999 V3000
M  V30 BEGIN CTAB
M  V30 COUNTS 67 70 0 0 1
M  V30 BEGIN ATOM
M  V30 1 C 7.168754 6.247100 -13.255789 0
M  V30 2 C 11.148141 8.021678 -7.508672 0
M  V30 3 C 9.488810 4.477826 -17.423565 0 CFG=1
M  V30 4 C 7.483373 6.010508 -19.697656 0
M  V30 5 O 7.649496 8.117536 -11.891667 0
M  V30 6 N 11.774428 8.564755 -9.800499 0
M  V30 7 C 8.564361 5.208366 -19.632362 0
M  V30 8 O 8.164977 4.135379 -12.752625 0
M  V30 9 C 8.246573 6.962843 -12.440539 0 CFG=1
M  V30 10 C 7.688706 4.926477 -13.841851 0 CFG=2
M  V30 11 C 7.226657 3.857323 -16.783795 0
M  V30 12 C 10.996319 7.830887 -8.903645 0
M  V30 13 O 9.965409 5.369299 -14.649765 0
M  V30 14 C 12.024918 6.011072 -18.653511 0
M  V30 15 C 10.961778 3.993713 -17.376993 0
M  V30 16 O 9.655567 5.417737 -20.432952 0
M  V30 17 C 8.729129 4.021399 -18.691683 0 CFG=2
M  V30 18 O 9.300757 4.856551 -12.042964 0
M  V30 19 C 8.646849 5.106738 -15.061155 0 CFG=1
M  V30 20 C 8.820252 6.021194 -11.365058 0 CFG=1
M  V30 21 O 13.121986 3.879633 -18.400314 0
M  V30 22 C 7.431192 3.358591 -18.208857 0
M  V30 23 C 11.721231 6.597119 -20.050593 0
M  V30 24 C 12.151793 9.030131 -6.976863 0
M  V30 25 C 10.363412 7.275840 -6.608910 0
M  V30 26 C 10.221440 6.723005 -20.378051 0
M  V30 27 C 9.280638 6.139536 -8.475255 0
M  V30 28 O 9.912851 6.727694 -10.763689 0
M  V30 29 C 9.434995 6.338460 -7.091656 0
M  V30 30 C 8.631366 4.050632 -16.203459 0 CFG=2
M  V30 31 C 11.847509 4.472289 -18.551705 0 CFG=2
M  V30 32 C 10.054961 6.893770 -9.392980 0
M  V30 33 H 6.791220 6.897617 -14.045461 0
M  V30 34 H 6.316598 6.030940 -12.609348 0
M  V30 35 H 9.501449 5.567726 -17.418305 0
M  V30 36 H 6.628322 5.848392 -19.059422 0
M  V30 37 H 7.444952 6.837490 -20.391215 0
M  V30 38 H 7.428433 7.958240 -10.964393 0
M  V30 39 H 11.572642 8.540252 -10.788606 0
M  V30 40 H 12.346409 9.333195 -9.480138 0
M  V30 41 H 9.043627 7.297003 -13.091665 0
M  V30 42 H 6.803929 4.405412 -14.204663 0
M  V30 43 H 6.691393 4.807600 -16.808916 0
M  V30 44 H 6.638362 3.155177 -16.190890 0
M  V30 45 H 10.317260 4.635299 -14.159199 0
M  V30 46 H 11.420679 6.527840 -17.909165 0
M  V30 47 H 13.049066 6.277646 -18.387796 0
M  V30 48 H 10.969498 2.903126 -17.348719 0
M  V30 49 H 11.428927 4.311619 -16.445570 0
M  V30 50 H 9.297565 3.263682 -19.232345 0
M  V30 51 H 8.326831 6.033624 -15.537533 0
M  V30 52 H 8.004025 5.749512 -10.701658 0
M  V30 53 H 13.646297 4.102930 -19.153998 0
M  V30 54 H 6.570096 3.538374 -18.853138 0
M  V30 55 H 7.576946 2.277894 -18.180516 0
M  V30 56 H 12.158042 7.594943 -20.103758 0
M  V30 57 H 12.224300 6.010392 -20.819905 0
M  V30 58 H 12.235124 8.969224 -5.891632 0
M  V30 59 H 13.139890 8.861471 -7.405918 0
M  V30 60 H 11.834835 10.042430 -7.220882 0
M  V30 61 H 10.474557 7.421549 -5.544578 0
M  V30 62 H 9.749652 7.369338 -19.634804 0
M  V30 63 H 10.087183 7.202434 -21.347895 0
M  V30 64 H 8.566926 5.414240 -8.823544 0
M  V30 65 H 8.836253 5.769394 -6.397340 0
M  V30 66 H 8.983397 3.076039 -15.876901 0
M  V30 67 H 11.452340 4.072966 -19.484392 0
M  V30 END ATOM
M  V30 BEGIN BOND
M  V30 1 2 7 4
M  V30 2 1 9 1
M  V30 3 1 9 5
M  V30 4 1 10 1
M  V30 5 1 10 8
M  V30 6 2 12 2
M  V30 7 1 12 6
M  V30 8 1 15 3
M  V30 9 1 16 7
M  V30 10 1 17 3
M  V30 11 1 17 7
M  V30 12 1 18 8
M  V30 13 1 19 10
M  V30 14 1 19 13
M  V30 15 1 20 9
M  V30 16 1 20 18
M  V30 17 1 22 11
M  V30 18 1 22 17
M  V30 19 1 23 14
M  V30 20 1 24 2
M  V30 21 1 25 2
M  V30 22 1 26 16
M  V30 23 1 26 23
M  V30 24 1 28 20
M  V30 25 2 29 25
M  V30 26 1 29 27
M  V30 27 1 30 3
M  V30 28 1 30 11
M  V30 29 1 30 19
M  V30 30 1 31 14
M  V30 31 1 31 15
M  V30 32 1 31 21
M  V30 33 1 32 12
M  V30 34 2 32 27
M  V30 35 1 32 28
M  V30 36 1 33 1
M  V30 37 1 34 1
M  V30 38 1 3 35 CFG=3
M  V30 39 1 36 4
M  V30 40 1 37 4
M  V30 41 1 38 5
M  V30 42 1 39 6
M  V30 43 1 40 6
M  V30 44 1 9 41 CFG=3
M  V30 45 1 10 42 CFG=3
M  V30 46 1 43 11
M  V30 47 1 44 11
M  V30 48 1 45 13
M  V30 49 1 46 14
M  V30 50 1 47 14
M  V30 51 1 48 15
M  V30 52 1 49 15
M  V30 53 1 17 50 CFG=3
M  V30 54 1 19 51 CFG=3
M  V30 55 1 20 52 CFG=1
M  V30 56 1 53 21
M  V30 57 1 54 22
M  V30 58 1 55 22
M  V30 59 1 56 23
M  V30 60 1 57 23
M  V30 61 1 58 24
M  V30 62 1 59 24
M  V30 63 1 60 24
M  V30 64 1 61 25
M  V30 65 1 62 26
M  V30 66 1 63 26
M  V30 67 1 64 27
M  V30 68 1 65 29
M  V30 69 1 30 66 CFG=1
M  V30 70 1 31 67 CFG=3
M  V30 END BOND
M  V30 END CTAB
M  END
>  <i_epik_Tot_Q>  (1) 
0

>  <i_epik_Tot_abs_Q>  (1) 
0

>  <i_i_glide_confnum>  (1) 
15

>  <i_i_glide_lignum>  (1) 
14

>  <i_i_glide_posenum>  (1) 
234

>  <i_i_glide_rotatable_bonds>  (1) 
7

>  <i_lp_mmshare_version>  (1) 
72125

>  <i_m_source_file_index>  (1) 
9

>  <i_f3d_flags>  (1) 
0

>  <num_sample>  (1) 
100

>  <b_lp_Chiralities_Consistent>  (1) 
1

>  <r_epik_Charging_Adjusted_Penalty>  (1) 
0

>  <r_epik_Ionization_Penalty>  (1) 
0.0024140143781195595

>  <r_epik_Ionization_Penalty_Charging>  (1) 
0

>  <r_epik_Ionization_Penalty_Neutral>  (1) 
0.0024140143781195595

>  <r_epik_State_Penalty>  (1) 
-0

>  <r_glide_ring_energy>  (1) 
1.5767807932002511

>  <r_i_docking_score>  (1) 
-4.4743553655368089

>  <r_i_glide_ecoul>  (1) 
-6.9824366214733367

>  <r_i_glide_eff_state_penalty>  (1) 
-0

>  <r_i_glide_einternal>  (1) 
11.618171982455021

>  <r_i_glide_emodel>  (1) 
-32.940306099719329

>  <r_i_glide_emodel_strain>  (1) 
4.7046125717826897

>  <r_i_glide_energy>  (1) 
-34.917883192574017

>  <r_i_glide_erotb>  (1) 
0.39668203270713775

>  <r_i_glide_esite>  (1) 
-0.049450572560033337

>  <r_i_glide_evdw>  (1) 
-27.93544657110068

>  <r_i_glide_gscore>  (1) 
-4.4743553655368089

>  <r_i_glide_gscore_strain>  (1) 
0.17615314294567241

>  <r_i_glide_hbond>  (1) 
-0.35498763232985675

>  <r_i_glide_ligand_efficiency>  (1) 
-0.13982360517302528

>  <r_i_glide_ligand_efficiency_ln>  (1) 
-1.0019301326645129

>  <r_i_glide_ligand_efficiency_sa>  (1) 
-0.44391227588329307

>  <r_i_glide_lipo>  (1) 
-1.4379640978570261

>  <r_i_glide_metal>  (1) 
-0

>  <r_i_glide_rewards>  (1) 
-0.76065041666666766

>  <r_lp_Energy>  (1) 
35.494580999999997

>  <r_lp_tautomer_probability>  (1) 
1

>  <s_epik_Chemistry_Notes>  (1) 
This compound contains an acetal/aminal-like group ( X-CH(R)-Y where X, Y are N, S, or O) that may be acid/base labile, releasing an aldehyde.

>  <s_epik_cmdline>  (1) 
J2VwaWtfcHl0aG9uJywgJy1waHQnLCAnMS4wJywgJy1waCcsICc3LjQnLCAnLXRuJywgJzgnLCAnLW1hJywgJzUwMCcsICctaW1hZScsICc8aW5maWxlLm1hZT4nLCAnLW9tYWUnLCAnPG91dGZpbGUubWFlPic=

>  <s_epik_input>  (1) 
W0NIM11jMWMoW05IMl0pYyhbY0hdW2NIXVtjSF0xKU9bQ0BASF0yT09bQ0BASF0oW0NIMl1bQ0BIXTJbT0hdKVtDQEBIXShbT0hdKVtDQEhdM1tDSDJdW0NIMl1bQ0BIXShbQ0BASF0zNClDKD1bQ0gyXSlPW0NIMl1bQ0gyXVtDSDJdW0NASF0oW0NIMl00KVtPSF0=

>  <s_glide_docking_method>  (1) 
confgen

>  <s_i_glide_gridfile>  (1) 
gpcr_drd2_6luq_protein_autoprepared_prepared

>  <s_lp_Force_Field>  (1) 
S-OPLS

>  <s_lp_Variant>  (1) 
DiffSBDD_8_num_sample_100-1

>  <s_m_source_file>  (1) 
generated__ligand_DiffSBDD_2026-05-06_prepared.sdf

>  <GenAI_Model>  (1) 
DiffSBDD

>  <Protein>  (1) 
generic_title2

$$$$
DiffSBDD_85_num_sample_100
     RDKit          3D

  0  0  0  0  0  0  0  0  0  0999 V3000
M  V30 BEGIN CTAB
M  V30 COUNTS 86 88 0 0 1
M  V30 BEGIN ATOM
M  V30 1 O 10.594747 -0.208448 -18.217483 0
M  V30 2 C 7.720434 2.912383 -18.421292 0
M  V30 3 C 9.419776 5.658505 -9.767219 0
M  V30 4 C 10.847861 8.374414 -6.952347 0
M  V30 5 C 5.861361 1.262006 -18.161576 0
M  V30 6 C 7.568843 5.186499 -13.453280 0 CFG=1
M  V30 7 C 10.076303 5.927083 -7.357953 0 CFG=2
M  V30 8 C 9.481566 6.505757 -5.862180 0
M  V30 9 C 9.025967 5.595686 -13.111570 0 CFG=2
M  V30 10 C 9.727929 7.114711 -10.192579 0 CFG=2
M  V30 11 C 7.358164 2.674124 -13.245174 0 CFG=2
M  V30 12 C 7.071837 1.027075 -15.306945 0
M  V30 13 C 8.781166 7.516843 -11.317323 0
M  V30 14 C 11.222749 7.474275 -10.468568 0
M  V30 15 C 5.916821 2.640991 -12.712136 0
M  V30 16 C 6.824461 6.163110 -14.382662 0
M  V30 17 C 11.700893 8.663664 -8.202615 0 CFG=1
M  V30 18 O 7.533092 0.273347 -13.074456 0
M  V30 19 C 10.243485 7.179703 -6.775414 0
M  V30 20 O 7.423927 1.885570 -16.301131 0
M  V30 21 C 10.755260 9.347376 -5.871889 0
M  V30 22 C 8.985499 5.556702 -8.320474 0
M  V30 23 C 12.074012 7.548349 -9.177782 0 CFG=2
M  V30 24 C 9.213295 7.073070 -12.691662 0
M  V30 25 C 8.274368 0.464974 -18.114830 0
M  V30 26 C 11.298400 10.569304 -5.915048 0
M  V30 27 C 9.740288 0.849253 -17.843219 0 CFG=2
M  V30 28 C 7.298704 1.601015 -17.711319 0 CFG=2
M  V30 29 C 10.126832 2.130405 -18.593218 0
M  V30 30 C 13.593269 7.841564 -9.264068 0
M  V30 31 O 9.827279 5.344064 -14.252233 0
M  V30 32 C 9.197169 3.282424 -18.193814 0
M  V30 33 O 6.300963 0.076585 -15.431028 0
M  V30 34 N 7.575455 3.856575 -14.108757 0 CHG=1
M  V30 35 C 7.754291 1.349808 -13.960748 0 CFG=2
M  V30 36 O 11.434841 9.769300 -9.040679 0
M  V30 37 H 10.485088 -0.378494 -19.140235 0
M  V30 38 H 7.081258 3.734608 -18.095598 0
M  V30 39 H 7.553417 2.812162 -19.495273 0
M  V30 40 H 8.587350 5.250583 -10.338558 0
M  V30 41 H 10.234439 4.978591 -9.950405 0
M  V30 42 H 5.814325 1.139262 -19.243920 0
M  V30 43 H 5.479454 0.335083 -17.732889 0
M  V30 44 H 5.179725 2.068707 -17.909631 0
M  V30 45 H 7.013916 5.158105 -12.516749 0
M  V30 46 H 10.915542 5.237314 -7.331351 0
M  V30 47 H 8.400046 6.561347 -5.891676 0
M  V30 48 H 9.921181 6.128925 -4.944515 0
M  V30 49 H 9.424283 4.932090 -12.346679 0
M  V30 50 H 9.411090 7.761156 -9.375116 0
M  V30 51 H 8.031442 2.791508 -12.392735 0
M  V30 52 H 8.698001 8.604158 -11.316047 0
M  V30 53 H 7.780434 7.139591 -11.135463 0
M  V30 54 H 11.668599 6.799268 -11.194072 0
M  V30 55 H 11.243651 8.425476 -10.981969 0
M  V30 56 H 5.835011 1.884751 -11.931892 0
M  V30 57 H 5.598167 3.579096 -12.261124 0
M  V30 58 H 5.201101 2.390077 -13.491637 0
M  V30 59 H 6.617550 7.113922 -13.891233 0
M  V30 60 H 7.396078 6.365185 -15.288822 0
M  V30 61 H 5.856989 5.758671 -14.681255 0
M  V30 62 H 12.574323 8.992587 -7.638618 0
M  V30 63 H 6.667542 -0.076462 -13.244378 0
M  V30 64 H 10.234834 9.065118 -4.986540 0
M  V30 65 H 8.103490 6.169305 -8.155617 0
M  V30 66 H 8.681032 4.535028 -8.095799 0
M  V30 67 H 11.834850 6.593610 -8.741805 0
M  V30 68 H 10.257788 7.347071 -12.815928 0
M  V30 69 H 8.634826 7.699780 -13.368391 0
M  V30 70 H 8.151507 0.241933 -19.176033 0
M  V30 71 H 8.026816 -0.458434 -17.588031 0
M  V30 72 H 11.206944 11.242544 -5.076370 0
M  V30 73 H 11.834807 10.916136 -6.776058 0
M  V30 74 H 9.867231 1.017850 -16.776116 0
M  V30 75 H 11.158018 2.397993 -18.366654 0
M  V30 76 H 10.069987 1.969885 -19.669648 0
M  V30 77 H 13.813369 8.895678 -9.416898 0
M  V30 78 H 13.959251 7.561668 -8.291676 0
M  V30 79 H 14.291364 7.369304 -9.891662 0
M  V30 80 H 10.722832 5.168740 -13.972598 0
M  V30 81 H 9.355036 3.540738 -17.146438 0
M  V30 82 H 9.445617 4.175531 -18.766801 0
M  V30 83 H 8.489579 3.799955 -14.541178 0
M  V30 84 H 8.826656 1.370033 -14.147090 0
M  V30 85 H 12.210331 9.950602 -9.551412 0
M  V30 86 H 6.880299 3.848600 -14.838716 0
M  V30 END ATOM
M  V30 BEGIN BOND
M  V30 1 1 8 7
M  V30 2 1 9 6
M  V30 3 1 10 3
M  V30 4 1 13 10
M  V30 5 1 14 10
M  V30 6 1 15 11
M  V30 7 1 16 6
M  V30 8 1 17 4
M  V30 9 2 19 4
M  V30 10 1 19 7
M  V30 11 1 19 8
M  V30 12 1 20 12
M  V30 13 1 21 4
M  V30 14 1 22 3
M  V30 15 1 22 7
M  V30 16 1 23 14
M  V30 17 1 23 17
M  V30 18 1 24 9
M  V30 19 1 24 13
M  V30 20 2 26 21
M  V30 21 1 27 1
M  V30 22 1 27 25
M  V30 23 1 28 2
M  V30 24 1 28 5
M  V30 25 1 28 20 CFG=1
M  V30 26 1 28 25
M  V30 27 1 29 27
M  V30 28 1 30 23
M  V30 29 1 31 9
M  V30 30 1 32 2
M  V30 31 1 32 29
M  V30 32 2 33 12
M  V30 33 1 34 6
M  V30 34 1 34 11
M  V30 35 1 35 11
M  V30 36 1 35 12
M  V30 37 1 35 18
M  V30 38 1 36 17
M  V30 39 1 37 1
M  V30 40 1 38 2
M  V30 41 1 39 2
M  V30 42 1 40 3
M  V30 43 1 41 3
M  V30 44 1 42 5
M  V30 45 1 43 5
M  V30 46 1 44 5
M  V30 47 1 6 45 CFG=1
M  V30 48 1 7 46 CFG=1
M  V30 49 1 47 8
M  V30 50 1 48 8
M  V30 51 1 9 49 CFG=1
M  V30 52 1 10 50 CFG=1
M  V30 53 1 11 51 CFG=1
M  V30 54 1 52 13
M  V30 55 1 53 13
M  V30 56 1 54 14
M  V30 57 1 55 14
M  V30 58 1 56 15
M  V30 59 1 57 15
M  V30 60 1 58 15
M  V30 61 1 59 16
M  V30 62 1 60 16
M  V30 63 1 61 16
M  V30 64 1 17 62 CFG=1
M  V30 65 1 63 18
M  V30 66 1 64 21
M  V30 67 1 65 22
M  V30 68 1 66 22
M  V30 69 1 23 67 CFG=1
M  V30 70 1 68 24
M  V30 71 1 69 24
M  V30 72 1 70 25
M  V30 73 1 71 25
M  V30 74 1 72 26
M  V30 75 1 73 26
M  V30 76 1 27 74 CFG=1
M  V30 77 1 75 29
M  V30 78 1 76 29
M  V30 79 1 77 30
M  V30 80 1 78 30
M  V30 81 1 79 30
M  V30 82 1 80 31
M  V30 83 1 81 32
M  V30 84 1 82 32
M  V30 85 1 83 34
M  V30 86 1 35 84 CFG=3
M  V30 87 1 85 36
M  V30 88 1 86 34
M  V30 END BOND
M  V30 END CTAB
M  END
>  <i_epik_Tot_Q>  (1) 
1

>  <i_epik_Tot_abs_Q>  (1) 
1

>  <i_i_glide_confnum>  (1) 
3139

>  <i_i_glide_lignum>  (1) 
175

>  <i_i_glide_posenum>  (1) 
163

>  <i_i_glide_rotatable_bonds>  (1) 
15

>  <i_lp_mmshare_version>  (1) 
72125

>  <i_m_source_file_index>  (1) 
86

>  <i_f3d_flags>  (1) 
0

>  <num_sample>  (1) 
100

>  <b_lp_Chiralities_Consistent>  (1) 
1

>  <r_epik_Charging_Adjusted_Penalty>  (1) 
0.062696987853435748

>  <r_epik_Ionization_Penalty>  (1) 
0.034019236300638377

>  <r_epik_Ionization_Penalty_Charging>  (1) 
0.03134849392671793

>  <r_epik_Ionization_Penalty_Neutral>  (1) 
0.0026707423739204469

>  <r_epik_State_Penalty>  (1) 
0.031348493926717819

>  <r_glide_ring_energy>  (1) 
0

>  <r_i_docking_score>  (1) 
-4.4590338113018531

>  <r_i_glide_ecoul>  (1) 
-6.3446139047992789

>  <r_i_glide_eff_state_penalty>  (1) 
0.031348493926717819

>  <r_i_glide_einternal>  (1) 
12.048523698245369

>  <r_i_glide_emodel>  (1) 
-12.814792007487913

>  <r_i_glide_emodel_strain>  (1) 
2.2828244137009506

>  <r_i_glide_energy>  (1) 
-13.600788804469893

>  <r_i_glide_erotb>  (1) 
0.87027123501495496

>  <r_i_glide_esite>  (1) 
0

>  <r_i_glide_evdw>  (1) 
-7.2561748996706141

>  <r_i_glide_gscore>  (1) 
-4.4903823052285707

>  <r_i_glide_gscore_strain>  (1) 
0

>  <r_i_glide_hbond>  (1) 
-0.3242094423273178

>  <r_i_glide_ligand_efficiency>  (1) 
-0.12386205031394036

>  <r_i_glide_ligand_efficiency_ln>  (1) 
-0.97284070845441128

>  <r_i_glide_ligand_efficiency_sa>  (1) 
-0.40898347903555704

>  <r_i_glide_lipo>  (1) 
-2.7152499192986639

>  <r_i_glide_metal>  (1) 
-0

>  <r_i_glide_rewards>  (1) 
-1.0066933479141207

>  <r_lp_Energy>  (1) 
44.733196

>  <s_epik_Chemistry_Notes>  (1) 
This compound has an ester and may undergo hydrolysis at high or low pH.

>  <s_epik_cmdline>  (1) 
J2VwaWtfcHl0aG9uJywgJy1waHQnLCAnMS4wJywgJy1waCcsICc3LjQnLCAnLXRuJywgJzgnLCAnLW1hJywgJzUwMCcsICctaW1hZScsICc8aW5maWxlLm1hZT4nLCAnLW9tYWUnLCAnPG91dGZpbGUubWFlPic=

>  <s_epik_input>  (1) 
W09IXVtDQEhdKFtDSDJdMSlbQ0gyXVtDSDJdW0NIMl1bQ0BdMShbQ0gzXSlPQyg9TylbQ0BIXShbT0hdKVtDQEhdKFtDSDNdKVtOSF1bQ0BIXShbQ0gzXSlbQ0BASF0oW09IXSlbQ0gyXVtDSDJdW0NAQEhdKFtDSDJdW0NIMl0yKVtDSDJdW0NAQEhdKFtDSDNdKVtDQEBIXShbT0hdKS9DKD1DKFxbQ0hdMjMpW0NIMl0zKVtDSF09W0NIMl0=

>  <s_glide_docking_method>  (1) 
confgen

>  <s_i_glide_gridfile>  (1) 
gpcr_drd2_6luq_protein_autoprepared_prepared

>  <s_lp_Force_Field>  (1) 
S-OPLS

>  <s_lp_Variant>  (1) 
DiffSBDD_85_num_sample_100-2

>  <s_m_source_file>  (1) 
generated__ligand_DiffSBDD_2026-05-06_prepared.sdf

>  <GenAI_Model>  (1) 
DiffSBDD

>  <Protein>  (1) 
generic_title2

$$$$
DiffSBDD_44_num_sample_100
     RDKit          3D

  0  0  0  0  0  0  0  0  0  0999 V3000
M  V30 BEGIN CTAB
M  V30 COUNTS 55 57 0 0 1
M  V30 BEGIN ATOM
M  V30 1 C 8.046080 -0.072555 -14.032077 0
M  V30 2 C 7.172284 0.902903 -14.849423 0 CFG=1
M  V30 3 C 10.185691 6.386428 -6.785350 0
M  V30 4 C 11.487327 8.767622 -6.037246 0
M  V30 5 C 11.052240 8.594003 -7.360206 0
M  V30 6 C 7.486365 4.418113 -11.806434 0
M  V30 7 C 7.400484 0.652792 -16.326442 0
M  V30 8 N 5.746337 0.569190 -14.755802 0
M  V30 9 C 7.627424 5.915507 -11.530305 0
M  V30 10 C 9.434844 6.176652 -9.695899 0
M  V30 11 O 9.290078 5.089065 -9.142687 0
M  V30 12 C 11.282135 7.755156 -5.091672 0
M  V30 13 N 12.128300 9.943039 -5.665487 0
M  V30 14 C 6.258263 -0.019062 -17.035884 0
M  V30 15 N 9.941692 7.282054 -9.132230 0
M  V30 16 C 8.468696 3.925205 -12.873352 0
M  V30 17 O 7.034959 3.293295 -15.196096 0
M  V30 18 C 9.258939 7.912894 -11.280526 0
M  V30 19 C 5.406373 -0.402858 -15.808651 0
M  V30 20 N 8.112611 2.597987 -13.331679 0
M  V30 21 C 5.170035 0.309257 -13.442171 0
M  V30 22 C 9.052037 6.376464 -11.149452 0 CFG=2
M  V30 23 C 10.029520 8.412623 -10.029542 0
M  V30 24 C 10.395006 7.407405 -7.749676 0
M  V30 25 C 7.434844 2.380180 -14.471073 0
M  V30 26 C 10.634757 6.569303 -5.462550 0
M  V30 27 O 8.445236 0.962627 -16.901061 0
M  V30 28 H 9.048351 0.306929 -13.891556 0
M  V30 29 H 7.661867 -0.230182 -13.026690 0
M  V30 30 H 8.157550 -1.030674 -14.531014 0
M  V30 31 H 9.682682 5.476076 -7.036278 0
M  V30 32 H 11.224964 9.370697 -8.079008 0
M  V30 33 H 7.631526 3.861362 -10.883829 0
M  V30 34 H 6.461335 4.220752 -12.123656 0
M  V30 35 H 6.921391 6.169301 -10.739969 0
M  V30 36 H 7.298636 6.464213 -12.413439 0
M  V30 37 H 11.621248 7.887819 -4.074478 0
M  V30 38 H 12.362698 10.123040 -4.700391 0
M  V30 39 H 12.190378 10.725203 -6.300445 0
M  V30 40 H 5.747453 0.695389 -17.681152 0
M  V30 41 H 6.578851 -0.884449 -17.615630 0
M  V30 42 H 8.533655 4.633155 -13.701967 0
M  V30 43 H 9.473643 3.849478 -12.456936 0
M  V30 44 H 9.789115 8.167950 -12.198370 0
M  V30 45 H 8.293327 8.419526 -11.328242 0
M  V30 46 H 4.338623 -0.382702 -16.030078 0
M  V30 47 H 5.658395 -1.415901 -15.491671 0
M  V30 48 H 8.412018 1.808921 -12.775621 0
M  V30 49 H 4.083687 0.260806 -13.511576 0
M  V30 50 H 5.517114 -0.630402 -13.014228 0
M  V30 51 H 5.434844 1.105350 -12.746712 0
M  V30 52 H 9.814751 5.896857 -11.759276 0
M  V30 53 H 9.548507 9.292402 -9.598763 0
M  V30 54 H 11.071215 8.631253 -10.267700 0
M  V30 55 H 10.475153 5.792778 -4.728542 0
M  V30 END ATOM
M  V30 BEGIN BOND
M  V30 1 1 2 1 CFG=1
M  V30 2 2 5 4
M  V30 3 1 7 2
M  V30 4 1 8 2
M  V30 5 1 9 6
M  V30 6 2 11 10
M  V30 7 1 12 4
M  V30 8 1 13 4
M  V30 9 1 14 7
M  V30 10 1 15 10
M  V30 11 1 16 6
M  V30 12 1 19 8
M  V30 13 1 19 14
M  V30 14 1 20 16
M  V30 15 1 21 8
M  V30 16 1 22 9
M  V30 17 1 22 10
M  V30 18 1 22 18
M  V30 19 1 23 15
M  V30 20 1 23 18
M  V30 21 2 24 3
M  V30 22 1 24 5
M  V30 23 1 24 15
M  V30 24 1 25 2
M  V30 25 2 25 17
M  V30 26 1 25 20
M  V30 27 1 26 3
M  V30 28 2 26 12
M  V30 29 2 27 7
M  V30 30 1 28 1
M  V30 31 1 29 1
M  V30 32 1 30 1
M  V30 33 1 31 3
M  V30 34 1 32 5
M  V30 35 1 33 6
M  V30 36 1 34 6
M  V30 37 1 35 9
M  V30 38 1 36 9
M  V30 39 1 37 12
M  V30 40 1 38 13
M  V30 41 1 39 13
M  V30 42 1 40 14
M  V30 43 1 41 14
M  V30 44 1 42 16
M  V30 45 1 43 16
M  V30 46 1 44 18
M  V30 47 1 45 18
M  V30 48 1 46 19
M  V30 49 1 47 19
M  V30 50 1 48 20
M  V30 51 1 49 21
M  V30 52 1 50 21
M  V30 53 1 51 21
M  V30 54 1 22 52 CFG=3
M  V30 55 1 53 23
M  V30 56 1 54 23
M  V30 57 1 55 26
M  V30 END BOND
M  V30 END CTAB
M  END
>  <i_epik_Tot_Q>  (1) 
0

>  <i_epik_Tot_abs_Q>  (1) 
0

>  <i_i_glide_confnum>  (1) 
55

>  <i_i_glide_lignum>  (1) 
77

>  <i_i_glide_posenum>  (1) 
391

>  <i_i_glide_rotatable_bonds>  (1) 
7

>  <i_lp_mmshare_version>  (1) 
72125

>  <i_m_source_file_index>  (1) 
45

>  <i_f3d_flags>  (1) 
0

>  <num_sample>  (1) 
100

>  <b_lp_Chiralities_Consistent>  (1) 
1

>  <r_epik_Charging_Adjusted_Penalty>  (1) 
0.38370982414574223

>  <r_epik_Ionization_Penalty>  (1) 
0.3841777034394574

>  <r_epik_Ionization_Penalty_Charging>  (1) 
0

>  <r_epik_Ionization_Penalty_Neutral>  (1) 
0.3841777034394574

>  <r_epik_State_Penalty>  (1) 
0.38370982414574223

>  <r_glide_ring_energy>  (1) 
0

>  <r_i_docking_score>  (1) 
-4.4546441209791086

>  <r_i_glide_ecoul>  (1) 
-2.1006881125389487

>  <r_i_glide_eff_state_penalty>  (1) 
0.38370982414574223

>  <r_i_glide_einternal>  (1) 
4.5661595153561976

>  <r_i_glide_emodel>  (1) 
-45.8184834294415

>  <r_i_glide_emodel_strain>  (1) 
0.79412635677809362

>  <r_i_glide_energy>  (1) 
-38.090768670220484

>  <r_i_glide_erotb>  (1) 
0.97453214498294238

>  <r_i_glide_esite>  (1) 
-0.17709822855415935

>  <r_i_glide_evdw>  (1) 
-35.990080557681537

>  <r_i_glide_gscore>  (1) 
-4.838353945124851

>  <r_i_glide_gscore_strain>  (1) 
0

>  <r_i_glide_hbond>  (1) 
0

>  <r_i_glide_ligand_efficiency>  (1) 
-0.16498681929552253

>  <r_i_glide_ligand_efficiency_ln>  (1) 
-1.0369677108159114

>  <r_i_glide_ligand_efficiency_sa>  (1) 
-0.49496045788656773

>  <r_i_glide_lipo>  (1) 
-1.689383647161506

>  <r_i_glide_metal>  (1) 
-0

>  <r_i_glide_rewards>  (1) 
-1.8317969696272087

>  <r_lp_Energy>  (1) 
23.583355999999998

>  <r_lp_tautomer_probability>  (1) 
0.99995000000000001

>  <s_epik_cmdline>  (1) 
J2VwaWtfcHl0aG9uJywgJy1waHQnLCAnMS4wJywgJy1waCcsICc3LjQnLCAnLXRuJywgJzgnLCAnLW1hJywgJzUwMCcsICctaW1hZScsICc8aW5maWxlLm1hZT4nLCAnLW9tYWUnLCAnPG91dGZpbGUubWFlPic=

>  <s_epik_input>  (1) 
W0NIM11OMVtDSDJdW0NIMl1DKD1PKVtDQEBdMShbQ0gzXSlDKD1PKVtOSF1bQ0gyXVtDSDJdW0NIMl1bQ0BASF0yW0NIMl1bQ0gyXU4oQzI9TyljKFtjSF1bY0hdW2NIXTMpW2NIXWMzW05IMl0=

>  <s_glide_docking_method>  (1) 
confgen

>  <s_i_glide_gridfile>  (1) 
gpcr_drd2_6luq_protein_autoprepared_prepared

>  <s_lp_Force_Field>  (1) 
S-OPLS

>  <s_lp_Variant>  (1) 
DiffSBDD_44_num_sample_100-2

>  <s_m_source_file>  (1) 
generated__ligand_DiffSBDD_2026-05-06_prepared.sdf

>  <GenAI_Model>  (1) 
DiffSBDD

>  <Protein>  (1) 
generic_title2

$$$$
DiffSBDD_67_num_sample_100
     RDKit          3D

  0  0  0  0  0  0  0  0  0  0999 V3000
M  V30 BEGIN CTAB
M  V30 COUNTS 79 83 0 0 1
M  V30 BEGIN ATOM
M  V30 1 C 6.688549 6.061145 -17.680082 0 CFG=2
M  V30 2 C 8.696331 6.277868 -19.409857 0 CFG=1
M  V30 3 C 10.223277 6.214597 -19.223664 0
M  V30 4 C 8.289168 5.825326 -20.839676 0 CFG=1
M  V30 5 C 7.266087 6.266701 -12.980776 0
M  V30 6 C 7.374883 5.247759 -15.326281 0
M  V30 7 C 11.020013 8.695881 -7.580268 0
M  V30 8 C 10.664589 6.466499 -6.651342 0
M  V30 9 C 6.848334 3.679905 -20.742903 0 CFG=2
M  V30 10 C 11.286266 7.629038 -10.206740 0
M  V30 11 C 7.484433 6.037755 -11.480503 0
M  V30 12 C 11.249300 9.197285 -6.282510 0
M  V30 13 C 9.108365 6.360440 -9.706312 0
M  V30 14 O 10.600332 8.169299 -11.091654 0 CHG=-1
M  V30 15 F 10.833672 6.169298 -4.284991 0
M  V30 16 C 9.225686 4.191964 -12.946610 0
M  V30 17 O 12.519896 7.769303 -10.049048 0
M  V30 18 C 8.246988 4.282019 -21.014501 0
M  V30 19 C 6.007671 4.594603 -19.831951 0 CFG=2
M  V30 20 C 10.734113 7.314366 -7.773849 0
M  V30 21 C 5.719077 5.901650 -20.606155 0
M  V30 22 N 7.807668 3.867237 -13.225273 0 CFG=1 CHG=1
M  V30 23 C 9.456724 4.600003 -11.485128 0
M  V30 24 N 8.898358 5.900513 -11.113000 0
M  V30 25 C 6.969020 6.479843 -21.301461 0
M  V30 26 C 7.038860 4.998277 -13.824620 0 CFG=1
M  V30 27 C 6.109869 7.501920 -15.701365 0
M  V30 28 C 10.545591 6.722847 -9.203563 0 CFG=2
M  V30 29 O 6.958552 2.378147 -20.205699 0
M  V30 30 C 6.687501 4.775912 -18.471158 0 CFG=1
M  V30 31 C 7.991945 5.525194 -18.279516 0 CFG=2
M  V30 32 O 11.540960 10.515801 -6.096157 0
M  V30 33 C 11.187324 8.341621 -5.179744 0
M  V30 34 C 7.595749 2.542326 -13.856747 0
M  V30 35 C 10.891910 6.982513 -5.357696 0
M  V30 36 C 6.353419 6.056013 -16.181976 0 CFG=1
M  V30 37 H 6.301487 6.940939 -18.183599 0
M  V30 38 H 8.434708 7.331179 -19.301672 0
M  V30 39 H 10.600205 5.197080 -19.330552 0
M  V30 40 H 10.739882 6.837883 -19.954310 0
M  V30 41 H 10.514551 6.568964 -18.235400 0
M  V30 42 H 9.060604 6.201940 -21.513312 0
M  V30 43 H 6.383729 6.896863 -13.057745 0
M  V30 44 H 8.090310 6.866484 -13.372668 0
M  V30 45 H 8.355426 5.719020 -15.405779 0
M  V30 46 H 7.478631 4.279964 -15.808401 0
M  V30 47 H 11.078255 9.366857 -8.424478 0
M  V30 48 H 10.451386 5.417371 -6.781979 0
M  V30 49 H 11.481323 11.022927 -6.890872 0
M  V30 50 H 6.324543 3.578070 -21.695228 0
M  V30 51 H 6.857735 5.254558 -11.052085 0
M  V30 52 H 7.119468 6.969293 -11.091668 0
M  V30 53 H 8.595687 5.698890 -9.007547 0
M  V30 54 H 8.635436 7.322758 -9.657384 0
M  V30 55 H 9.834694 3.309669 -13.091609 0
M  V30 56 H 9.623354 4.939685 -13.633598 0
M  V30 57 H 8.545775 4.016883 -22.029502 0
M  V30 58 H 8.994865 3.821907 -20.367554 0
M  V30 59 H 5.045398 4.117663 -19.639497 0
M  V30 60 H 5.232585 6.648110 -19.980906 0
M  V30 61 H 4.979626 5.687152 -21.379227 0
M  V30 62 H 10.536953 4.680123 -11.491673 0
M  V30 63 H 9.155407 3.817113 -10.787152 0
M  V30 64 H 7.008186 7.561971 -21.168369 0
M  V30 65 H 6.871364 6.323121 -22.377128 0
M  V30 66 H 5.986618 4.721575 -13.748321 0
M  V30 67 H 7.034842 8.022226 -15.458747 0
M  V30 68 H 5.590135 8.099911 -16.451546 0
M  V30 69 H 5.460105 7.527185 -14.830569 0
M  V30 70 H 11.034842 5.769863 -9.091669 0
M  V30 71 H 7.415311 2.429761 -19.379881 0
M  V30 72 H 6.634833 3.860628 -17.887190 0
M  V30 73 H 8.689940 5.025520 -17.611932 0
M  V30 74 H 11.368478 8.728400 -4.188614 0
M  V30 75 H 8.139089 2.446338 -14.796535 0
M  V30 76 H 7.944712 1.749621 -13.192634 0
M  V30 77 H 6.535884 2.368101 -14.046497 0
M  V30 78 H 5.392298 5.550879 -16.101392 0
M  V30 79 H 7.408619 3.767697 -12.302741 0
M  V30 END ATOM
M  V30 BEGIN BOND
M  V30 1 1 3 2
M  V30 2 1 4 2
M  V30 3 1 11 5
M  V30 4 2 12 7
M  V30 5 1 14 10
M  V30 6 2 17 10
M  V30 7 1 18 4
M  V30 8 1 18 9
M  V30 9 1 19 9
M  V30 10 1 20 7
M  V30 11 2 20 8
M  V30 12 1 21 19
M  V30 13 1 22 16
M  V30 14 1 23 16
M  V30 15 1 24 11
M  V30 16 1 24 13
M  V30 17 1 24 23
M  V30 18 1 25 4
M  V30 19 1 25 21
M  V30 20 1 26 5
M  V30 21 1 26 6
M  V30 22 1 26 22
M  V30 23 1 28 10
M  V30 24 1 28 13
M  V30 25 1 28 20
M  V30 26 1 29 9
M  V30 27 1 30 1
M  V30 28 1 30 19
M  V30 29 1 31 1
M  V30 30 1 31 2
M  V30 31 1 31 30
M  V30 32 1 32 12
M  V30 33 1 33 12
M  V30 34 1 34 22
M  V30 35 1 35 8
M  V30 36 1 35 15
M  V30 37 2 35 33
M  V30 38 1 36 1
M  V30 39 1 36 6
M  V30 40 1 36 27
M  V30 41 1 1 37 CFG=3
M  V30 42 1 2 38 CFG=3
M  V30 43 1 39 3
M  V30 44 1 40 3
M  V30 45 1 41 3
M  V30 46 1 4 42 CFG=3
M  V30 47 1 43 5
M  V30 48 1 44 5
M  V30 49 1 45 6
M  V30 50 1 46 6
M  V30 51 1 47 7
M  V30 52 1 48 8
M  V30 53 1 49 32
M  V30 54 1 9 50 CFG=3
M  V30 55 1 51 11
M  V30 56 1 52 11
M  V30 57 1 53 13
M  V30 58 1 54 13
M  V30 59 1 55 16
M  V30 60 1 56 16
M  V30 61 1 57 18
M  V30 62 1 58 18
M  V30 63 1 19 59 CFG=1
M  V30 64 1 60 21
M  V30 65 1 61 21
M  V30 66 1 62 23
M  V30 67 1 63 23
M  V30 68 1 64 25
M  V30 69 1 65 25
M  V30 70 1 26 66 CFG=3
M  V30 71 1 67 27
M  V30 72 1 68 27
M  V30 73 1 69 27
M  V30 74 1 28 70 CFG=1
M  V30 75 1 71 29
M  V30 76 1 30 72 CFG=1
M  V30 77 1 31 73 CFG=1
M  V30 78 1 74 33
M  V30 79 1 75 34
M  V30 80 1 76 34
M  V30 81 1 77 34
M  V30 82 1 36 78 CFG=3
M  V30 83 1 22 79 CFG=1
M  V30 END BOND
M  V30 END CTAB
M  END
>  <i_epik_Tot_Q>  (1) 
0

>  <i_epik_Tot_abs_Q>  (1) 
2

>  <i_i_glide_confnum>  (1) 
569

>  <i_i_glide_lignum>  (1) 
135

>  <i_i_glide_posenum>  (1) 
227

>  <i_i_glide_rotatable_bonds>  (1) 
9

>  <i_lp_mmshare_version>  (1) 
72125

>  <i_m_source_file_index>  (1) 
68

>  <i_f3d_flags>  (1) 
0

>  <num_sample>  (1) 
100

>  <b_lp_Chiralities_Consistent>  (1) 
1

>  <r_epik_Charging_Adjusted_Penalty>  (1) 
1.0015811376701689

>  <r_epik_Ionization_Penalty>  (1) 
0.014205467742633596

>  <r_epik_Ionization_Penalty_Charging>  (1) 
0.0035901324651834211

>  <r_epik_Ionization_Penalty_Neutral>  (1) 
0.010615335277450176

>  <r_epik_State_Penalty>  (1) 
0.99799100520498552

>  <r_glide_ring_energy>  (1) 
0

>  <r_i_docking_score>  (1) 
-4.4542116409137211

>  <r_i_glide_ecoul>  (1) 
-3.2114868586387084

>  <r_i_glide_eff_state_penalty>  (1) 
0.99799100520498552

>  <r_i_glide_einternal>  (1) 
6.8586341347269322

>  <r_i_glide_emodel>  (1) 
-28.747108971164213

>  <r_i_glide_emodel_strain>  (1) 
2.1441054137139162

>  <r_i_glide_energy>  (1) 
-25.289753473380749

>  <r_i_glide_erotb>  (1) 
0.48522832276191719

>  <r_i_glide_esite>  (1) 
0

>  <r_i_glide_evdw>  (1) 
-22.078266614742041

>  <r_i_glide_gscore>  (1) 
-5.4522026461187068

>  <r_i_glide_gscore_strain>  (1) 
0

>  <r_i_glide_hbond>  (1) 
0

>  <r_i_glide_ligand_efficiency>  (1) 
-0.12372810113649226

>  <r_i_glide_ligand_efficiency_ln>  (1) 
-0.97178864115570907

>  <r_i_glide_ligand_efficiency_sa>  (1) 
-0.40854118859657407

>  <r_i_glide_lipo>  (1) 
-3.2633264952974148

>  <r_i_glide_metal>  (1) 
-0

>  <r_i_glide_rewards>  (1) 
-1.0884681140503008

>  <r_lp_Energy>  (1) 
48.201639999999998

>  <s_epik_cmdline>  (1) 
J2VwaWtfcHl0aG9uJywgJy1waHQnLCAnMS4wJywgJy1waCcsICc3LjQnLCAnLXRuJywgJzgnLCAnLW1hJywgJzUwMCcsICctaW1hZScsICc8aW5maWxlLm1hZT4nLCAnLW9tYWUnLCAnPG91dGZpbGUubWFlPic=

>  <s_epik_input>  (1) 
W0NIM11bQ0BASF0oW0NAQEhdMTIpW0NAQEhdM1tDQEhdKFtDQEhdKFtDQEBIXShbQ0gyXTEpW09IXSlbQ0gyXVtDSDJdMilbQ0BIXTNbQ0BIXShbQ0gzXSlbQ0gyXVtDQEBIXTRbQ0gyXVtDSDJdTihbQ0gyXVtDSDJdTjRbQ0gzXSlbQ0gyXVtDQEBIXShDKD1PKVtPSF0pQyg9W0NIXUM1PU8pW0NIMl1DKEYpPVtDSF01

>  <s_glide_docking_method>  (1) 
confgen

>  <s_i_glide_gridfile>  (1) 
gpcr_drd2_6luq_protein_autoprepared_prepared

>  <s_lp_Force_Field>  (1) 
S-OPLS

>  <s_lp_Variant>  (1) 
DiffSBDD_67_num_sample_100-3

>  <s_m_source_file>  (1) 
generated__ligand_DiffSBDD_2026-05-06_prepared.sdf

>  <GenAI_Model>  (1) 
DiffSBDD

>  <Protein>  (1) 
generic_title2

$$$$
DiffSBDD_66_num_sample_100
     RDKit          3D

  0  0  0  0  0  0  0  0  0  0999 V3000
M  V30 BEGIN CTAB
M  V30 COUNTS 88 91 0 0 1
M  V30 BEGIN ATOM
M  V30 1 C 11.940169 6.000558 -17.868511 0
M  V30 2 F 6.087342 3.911077 -13.445258 0
M  V30 3 C 9.948986 5.525478 -19.378288 0 CFG=1
M  V30 4 N 12.280154 3.688377 -19.989882 0
M  V30 5 C 13.798722 2.080662 -19.009721 0
M  V30 6 F 9.889317 5.602575 -21.742328 0
M  V30 7 O 9.979365 6.163035 -12.295365 0
M  V30 8 N 14.565885 4.122146 -17.949536 0
M  V30 9 O 8.310839 3.927018 -13.036110 0
M  V30 10 C 11.874120 4.557584 -21.001518 0
M  V30 11 O 14.835216 2.187729 -16.871715 0
M  V30 12 C 8.523664 4.914483 -19.508473 0
M  V30 13 C 15.303246 3.284301 -16.017322 0
M  V30 14 C 7.837229 4.660308 -18.176370 0
M  V30 15 O 13.105924 0.091276 -17.804778 0
M  V30 16 C 13.345902 2.795673 -20.218493 0
M  V30 17 O 12.406203 4.592472 -22.114498 0
M  V30 18 C 13.705847 0.560905 -18.994289 0
M  V30 19 C 7.628285 3.192448 -17.808303 0
M  V30 20 C 9.035607 6.690907 -11.709535 0
M  V30 21 C 15.236128 4.637159 -16.813362 0
M  V30 22 O 9.385715 0.561790 -17.870726 0
M  V30 23 C 7.654362 6.145173 -14.888794 0
M  V30 24 C 9.834718 5.257099 -8.809477 0
M  V30 25 C 7.085729 4.603517 -12.846524 0 CFG=1
M  V30 26 O 13.856849 2.629654 -21.328575 0
M  V30 27 C 10.862145 4.975866 -18.279484 0 CFG=1
M  V30 28 N 9.034842 6.944146 -10.392078 0
M  V30 29 C 5.374140 6.162173 -16.014263 0 CFG=2
M  V30 30 C 10.505583 2.421733 -18.800075 0
M  V30 31 C 8.683488 2.625943 -16.834241 0 CFG=1
M  V30 32 O 4.699381 6.222454 -17.279472 0
M  V30 33 C 7.983395 1.770672 -15.752851 0
M  V30 34 C 7.445937 5.683644 -17.381903 0
M  V30 35 C 7.124958 6.039114 -13.430522 0 CFG=1
M  V30 36 C 11.491895 3.629865 -18.695251 0 CFG=1
M  V30 37 C 10.724774 5.557302 -20.701429 0 CFG=2
M  V30 38 C 14.365554 2.792443 -17.993394 0
M  V30 39 C 10.121727 6.597257 -9.498209 0
M  V30 40 C 5.010801 7.478341 -16.655076 0
M  V30 41 C 6.767761 5.539998 -16.014440 0 CFG=1
M  V30 42 C 9.850515 1.851053 -17.515361 0 CFG=1
M  V30 43 C 7.764974 7.091560 -12.477058 0
M  V30 44 H 12.679604 6.169170 -18.650262 0
M  V30 45 H 11.511191 6.968945 -17.622651 0
M  V30 46 H 12.463622 5.659971 -16.976273 0
M  V30 47 H 9.754278 6.564699 -19.106590 0
M  V30 48 H 14.331891 4.731039 -18.721885 0
M  V30 49 H 9.018593 4.537461 -12.864804 0
M  V30 50 H 7.904515 5.636091 -20.043520 0
M  V30 51 H 8.490176 4.040729 -20.152297 0
M  V30 52 H 14.645904 3.369391 -15.154092 0
M  V30 53 H 16.305513 3.079590 -15.643875 0
M  V30 54 H 13.551532 0.492457 -17.070034 0
M  V30 55 H 14.707233 0.138822 -19.086161 0
M  V30 56 H 13.125818 0.199093 -19.845111 0
M  V30 57 H 6.634903 3.094867 -17.381279 0
M  V30 58 H 7.567640 2.582082 -18.709949 0
M  V30 59 H 14.661628 5.407103 -16.297404 0
M  V30 60 H 16.222793 5.016209 -17.081885 0
M  V30 61 H 8.625966 0.657885 -18.424108 0
M  V30 62 H 8.660237 5.727785 -14.949878 0
M  V30 63 H 7.763823 7.206879 -15.091722 0
M  V30 64 H 10.596142 5.036469 -8.061709 0
M  V30 65 H 8.868880 5.272597 -8.302836 0
M  V30 66 H 9.827494 4.437912 -9.529764 0
M  V30 67 H 6.875036 4.647299 -11.778798 0
M  V30 68 H 10.286994 4.839961 -17.371063 0
M  V30 69 H 8.186496 7.369383 -9.970686 0
M  V30 70 H 4.735608 5.815986 -15.204848 0
M  V30 71 H 11.091340 1.588363 -19.185823 0
M  V30 72 H 9.773146 2.554952 -19.585210 0
M  V30 73 H 9.115395 3.460799 -16.287492 0
M  V30 74 H 7.437692 0.932115 -16.185431 0
M  V30 75 H 8.685819 1.367469 -15.028690 0
M  V30 76 H 7.261151 2.356131 -15.187823 0
M  V30 77 H 7.618838 6.688671 -17.719813 0
M  V30 78 H 6.082873 6.357316 -13.460298 0
M  V30 79 H 12.067767 3.399211 -17.811527 0
M  V30 80 H 11.220721 6.527585 -20.738504 0
M  V30 81 H 11.075461 6.608301 -10.009998 0
M  V30 82 H 10.178887 7.375827 -8.738356 0
M  V30 83 H 4.141442 8.024380 -16.293024 0
M  V30 84 H 5.782856 8.063154 -17.148730 0
M  V30 85 H 6.635130 4.489646 -15.783251 0
M  V30 86 H 10.639860 1.706124 -16.781488 0
M  V30 87 H 7.965566 8.024177 -13.004425 0
M  V30 88 H 7.008249 7.354002 -11.736581 0
M  V30 END ATOM
M  V30 BEGIN BOND
M  V30 1 1 10 4
M  V30 2 1 12 3
M  V30 3 1 13 11
M  V30 4 1 14 12
M  V30 5 1 16 4
M  V30 6 1 16 5
M  V30 7 2 17 10
M  V30 8 1 18 5
M  V30 9 1 18 15
M  V30 10 1 19 14
M  V30 11 2 20 7
M  V30 12 1 21 8
M  V30 13 1 21 13
M  V30 14 1 25 2
M  V30 15 1 25 9
M  V30 16 2 26 16
M  V30 17 1 27 1
M  V30 18 1 27 3
M  V30 19 1 28 20
M  V30 20 1 31 19
M  V30 21 1 32 29
M  V30 22 1 33 31
M  V30 23 2 34 14
M  V30 24 1 35 23
M  V30 25 1 35 25
M  V30 26 1 36 4
M  V30 27 1 36 27
M  V30 28 1 36 30
M  V30 29 1 37 3
M  V30 30 1 37 6
M  V30 31 1 37 10
M  V30 32 2 38 5
M  V30 33 1 38 8
M  V30 34 1 38 11
M  V30 35 1 39 24
M  V30 36 1 39 28
M  V30 37 1 40 29
M  V30 38 1 40 32
M  V30 39 1 41 23
M  V30 40 1 41 29
M  V30 41 1 41 34
M  V30 42 1 42 22
M  V30 43 1 42 30
M  V30 44 1 42 31
M  V30 45 1 43 20
M  V30 46 1 43 35
M  V30 47 1 44 1
M  V30 48 1 45 1
M  V30 49 1 46 1
M  V30 50 1 3 47 CFG=1
M  V30 51 1 48 8
M  V30 52 1 49 9
M  V30 53 1 50 12
M  V30 54 1 51 12
M  V30 55 1 52 13
M  V30 56 1 53 13
M  V30 57 1 54 15
M  V30 58 1 55 18
M  V30 59 1 56 18
M  V30 60 1 57 19
M  V30 61 1 58 19
M  V30 62 1 59 21
M  V30 63 1 60 21
M  V30 64 1 61 22
M  V30 65 1 62 23
M  V30 66 1 63 23
M  V30 67 1 64 24
M  V30 68 1 65 24
M  V30 69 1 66 24
M  V30 70 1 25 67 CFG=1
M  V30 71 1 27 68 CFG=1
M  V30 72 1 69 28
M  V30 73 1 29 70 CFG=1
M  V30 74 1 71 30
M  V30 75 1 72 30
M  V30 76 1 31 73 CFG=1
M  V30 77 1 74 33
M  V30 78 1 75 33
M  V30 79 1 76 33
M  V30 80 1 77 34
M  V30 81 1 35 78 CFG=3
M  V30 82 1 36 79 CFG=1
M  V30 83 1 37 80 CFG=1
M  V30 84 1 81 39
M  V30 85 1 82 39
M  V30 86 1 83 40
M  V30 87 1 84 40
M  V30 88 1 41 85 CFG=1
M  V30 89 1 42 86 CFG=1
M  V30 90 1 87 43
M  V30 91 1 88 43
M  V30 END BOND
M  V30 END CTAB
M  END
>  <i_epik_Tot_Q>  (1) 
0

>  <i_epik_Tot_abs_Q>  (1) 
0

>  <i_i_glide_confnum>  (1) 
1470

>  <i_i_glide_lignum>  (1) 
131

>  <i_i_glide_posenum>  (1) 
117

>  <i_i_glide_rotatable_bonds>  (1) 
15

>  <i_lp_mmshare_version>  (1) 
72125

>  <i_m_source_file_index>  (1) 
67

>  <i_f3d_flags>  (1) 
0

>  <num_sample>  (1) 
100

>  <b_lp_Chiralities_Consistent>  (1) 
1

>  <r_epik_Charging_Adjusted_Penalty>  (1) 
0.011224841026204068

>  <r_epik_Ionization_Penalty>  (1) 
0.011270599783865109

>  <r_epik_Ionization_Penalty_Charging>  (1) 
8.5422756824624084e-11

>  <r_epik_Ionization_Penalty_Neutral>  (1) 
0.011270599698442352

>  <r_epik_State_Penalty>  (1) 
0.01122484094078131

>  <r_glide_ring_energy>  (1) 
0

>  <r_i_docking_score>  (1) 
-4.4520019021885791

>  <r_i_glide_ecoul>  (1) 
-6.8067003486563964

>  <r_i_glide_eff_state_penalty>  (1) 
0.01122484094078131

>  <r_i_glide_einternal>  (1) 
14.071232668403603

>  <r_i_glide_emodel>  (1) 
-37.568224051583599

>  <r_i_glide_emodel_strain>  (1) 
1.329759636049971

>  <r_i_glide_energy>  (1) 
-35.702725600231275

>  <r_i_glide_erotb>  (1) 
0.43215163049877869

>  <r_i_glide_esite>  (1) 
-0.13864110862322751

>  <r_i_glide_evdw>  (1) 
-28.89602525157488

>  <r_i_glide_gscore>  (1) 
-4.4632267431293604

>  <r_i_glide_gscore_strain>  (1) 
0

>  <r_i_glide_hbond>  (1) 
-0.12935131728183227

>  <r_i_glide_ligand_efficiency>  (1) 
-0.10353492795787393

>  <r_i_glide_ligand_efficiency_ln>  (1) 
-0.93505876543902799

>  <r_i_glide_ligand_efficiency_sa>  (1) 
-0.3627240657898948

>  <r_i_glide_lipo>  (1) 
-1.7135239852456601

>  <r_i_glide_metal>  (1) 
-0

>  <r_i_glide_rewards>  (1) 
-0.44805564760021538

>  <r_lp_Energy>  (1) 
48.107619999999997

>  <r_lp_tautomer_probability>  (1) 
0.49997499999946832

>  <s_epik_Chemistry_Notes>  (1) 
This compound has an imine and may undergo hydrolysis.

>  <s_epik_cmdline>  (1) 
J2VwaWtfcHl0aG9uJywgJy1waHQnLCAnMS4wJywgJy1waCcsICc3LjQnLCAnLXRuJywgJzgnLCAnLW1hJywgJzUwMCcsICctaW1hZScsICc8aW5maWxlLm1hZT4nLCAnLW9tYWUnLCAnPG91dGZpbGUubWFlPic=

>  <s_epik_input>  (1) 
TzFbQ0gyXVtDSDJdTj1DMVtDQEhdKFtDSDJdW09IXSlDKD1PKU4oQyg9TylbQ0BIXTJGKVtDQEBIXShbQ0BASF0zW0NIM10pW0NIMl1bQ0BIXShbT0hdKVtDQEhdKFtDSDNdKVtDSDJdQyhcW0NIMl1bQ0BIXTIzKT1bQ0hdL1tDQEhdKFtDQEBIXTRPW0NIMl00KVtDSDJdW0NAQEhdKFtDQEBIXShGKVtPSF0pW0NIMl1DKD1PKVtOSF1bQ0gyXVtDSDNd

>  <s_glide_docking_method>  (1) 
confgen

>  <s_i_glide_gridfile>  (1) 
gpcr_drd2_6luq_protein_autoprepared_prepared

>  <s_lp_Force_Field>  (1) 
S-OPLS

>  <s_lp_Variant>  (1) 
DiffSBDD_66_num_sample_100-3

>  <s_m_source_file>  (1) 
generated__ligand_DiffSBDD_2026-05-06_prepared.sdf

>  <GenAI_Model>  (1) 
DiffSBDD

>  <Protein>  (1) 
generic_title2

$$$$
DiffSBDD_61_num_sample_100
     RDKit          3D

  0  0  0  0  0  0  0  0  0  0999 V3000
M  V30 BEGIN CTAB
M  V30 COUNTS 52 54 0 0 1
M  V30 BEGIN ATOM
M  V30 1 N 11.188831 8.340583 -6.053822 0 CFG=2 CHG=1
M  V30 2 C 7.105205 2.813785 -14.070163 0
M  V30 3 C 7.380904 4.221649 -13.513388 0 CFG=1
M  V30 4 O 12.381650 7.097998 -2.796869 0
M  V30 5 C 12.634837 8.470714 -2.698346 0
M  V30 6 O 8.689040 4.576744 -13.914119 0
M  V30 7 C 9.148080 5.839101 -9.893445 0
M  V30 8 O 5.517539 6.569244 -15.891708 0
M  V30 9 C 10.394535 6.607059 -9.414902 0
M  V30 10 C 7.181064 5.753051 -11.546735 0 CFG=1
M  V30 11 C 10.018439 7.493600 -6.335802 0
M  V30 12 C 6.351477 5.244451 -14.041924 0 CFG=2
M  V30 13 C 6.553644 5.687858 -15.505214 0
M  V30 14 C 9.295013 8.009842 -7.568625 0
M  V30 15 C 7.291870 4.281176 -11.977211 0
M  V30 16 C 10.186579 8.011912 -8.821117 0 CFG=1
M  V30 17 O 6.234850 2.127576 -13.491695 0 CHG=-1
M  V30 18 C 12.168360 8.272773 -7.169279 0
M  V30 19 C 8.534965 6.398047 -11.191483 0
M  V30 20 C 11.544556 8.692731 -8.515290 0
M  V30 21 C 11.829960 6.917921 -4.043529 0
M  V30 22 C 11.753502 8.115522 -4.665382 0
M  V30 23 C 12.255960 9.121578 -3.845650 0
M  V30 24 S 6.376659 6.655614 -12.901608 0
M  V30 25 O 7.776529 2.461218 -15.067925 0
M  V30 26 H 13.075997 8.792588 -1.765406 0
M  V30 27 H 8.866732 3.982123 -14.636336 0
M  V30 28 H 8.391291 5.776128 -9.113553 0
M  V30 29 H 9.449794 4.807195 -10.069156 0
M  V30 30 H 5.499429 7.278873 -15.265787 0
M  V30 31 H 10.931470 5.993245 -8.691740 0
M  V30 32 H 11.034820 6.725928 -10.283219 0
M  V30 33 H 6.525461 5.817167 -10.678081 0
M  V30 34 H 10.313667 6.450895 -6.462714 0
M  V30 35 H 9.342020 7.526474 -5.491685 0
M  V30 36 H 5.357630 4.802609 -13.945974 0
M  V30 37 H 6.571352 4.831021 -16.177679 0
M  V30 38 H 7.508940 6.199259 -15.623622 0
M  V30 39 H 8.903213 9.009981 -7.384931 0
M  V30 40 H 8.436227 7.369398 -7.709320 0
M  V30 41 H 8.130441 3.769280 -11.509262 0
M  V30 42 H 6.391609 3.771655 -11.630374 0
M  V30 43 H 9.682412 8.607430 -9.582804 0
M  V30 44 H 12.546130 7.254377 -7.259661 0
M  V30 45 H 13.011304 8.935375 -6.956272 0
M  V30 46 H 9.240291 6.284436 -12.014138 0
M  V30 47 H 8.378961 7.471294 -11.091668 0
M  V30 48 H 12.253638 8.497543 -9.321157 0
M  V30 49 H 11.434836 9.769311 -8.516173 0
M  V30 50 H 11.558555 5.903727 -4.302182 0
M  V30 51 H 12.335057 10.169301 -4.047152 0
M  V30 52 H 10.829612 9.283733 -6.086693 0
M  V30 END ATOM
M  V30 BEGIN BOND
M  V30 1 1 3 2
M  V30 2 1 5 4
M  V30 3 1 3 6 CFG=1
M  V30 4 1 9 7
M  V30 5 1 11 1
M  V30 6 1 12 3
M  V30 7 1 13 8
M  V30 8 1 13 12
M  V30 9 1 14 11
M  V30 10 1 15 3
M  V30 11 1 15 10
M  V30 12 1 16 9
M  V30 13 1 16 14
M  V30 14 1 17 2
M  V30 15 1 18 1
M  V30 16 1 19 7
M  V30 17 1 19 10
M  V30 18 1 20 16
M  V30 19 1 20 18
M  V30 20 1 21 4
M  V30 21 1 22 1
M  V30 22 2 22 21
M  V30 23 2 23 5
M  V30 24 1 23 22
M  V30 25 1 24 10
M  V30 26 1 24 12
M  V30 27 2 25 2
M  V30 28 1 26 5
M  V30 29 1 27 6
M  V30 30 1 28 7
M  V30 31 1 29 7
M  V30 32 1 30 8
M  V30 33 1 31 9
M  V30 34 1 32 9
M  V30 35 1 10 33 CFG=1
M  V30 36 1 34 11
M  V30 37 1 35 11
M  V30 38 1 12 36 CFG=3
M  V30 39 1 37 13
M  V30 40 1 38 13
M  V30 41 1 39 14
M  V30 42 1 40 14
M  V30 43 1 41 15
M  V30 44 1 42 15
M  V30 45 1 16 43 CFG=3
M  V30 46 1 44 18
M  V30 47 1 45 18
M  V30 48 1 46 19
M  V30 49 1 47 19
M  V30 50 1 48 20
M  V30 51 1 49 20
M  V30 52 1 50 21
M  V30 53 1 51 23
M  V30 54 1 1 52 CFG=1
M  V30 END BOND
M  V30 END CTAB
M  END
>  <i_epik_Tot_Q>  (1) 
0

>  <i_epik_Tot_abs_Q>  (1) 
2

>  <i_i_glide_confnum>  (1) 
290

>  <i_i_glide_lignum>  (1) 
122

>  <i_i_glide_posenum>  (1) 
208

>  <i_i_glide_rotatable_bonds>  (1) 
9

>  <i_lp_mmshare_version>  (1) 
72125

>  <i_m_source_file_index>  (1) 
62

>  <i_f3d_flags>  (1) 
0

>  <num_sample>  (1) 
100

>  <b_lp_Chiralities_Consistent>  (1) 
1

>  <r_epik_Charging_Adjusted_Penalty>  (1) 
0.30587031255842323

>  <r_epik_Ionization_Penalty>  (1) 
0.15296771237530521

>  <r_epik_Ionization_Penalty_Charging>  (1) 
0.15296734445016963

>  <r_epik_Ionization_Penalty_Neutral>  (1) 
3.6792513557102453e-07

>  <r_epik_State_Penalty>  (1) 
0.15290296810825357

>  <r_glide_ring_energy>  (1) 
0

>  <r_i_docking_score>  (1) 
-4.4392321723713621

>  <r_i_glide_ecoul>  (1) 
0.21120115484887025

>  <r_i_glide_eff_state_penalty>  (1) 
0.15290296810825357

>  <r_i_glide_einternal>  (1) 
4.963679041431277

>  <r_i_glide_emodel>  (1) 
-34.814875129520601

>  <r_i_glide_emodel_strain>  (1) 
1.3633483478534032

>  <r_i_glide_energy>  (1) 
-30.199058998795078

>  <r_i_glide_erotb>  (1) 
0.84742595842419921

>  <r_i_glide_esite>  (1) 
0

>  <r_i_glide_evdw>  (1) 
-30.410260153643947

>  <r_i_glide_gscore>  (1) 
-4.5921351404796154

>  <r_i_glide_gscore_strain>  (1) 
0

>  <r_i_glide_hbond>  (1) 
0

>  <r_i_glide_ligand_efficiency>  (1) 
-0.17756928689485449

>  <r_i_glide_ligand_efficiency_ln>  (1) 
-1.0522310579051104

>  <r_i_glide_ligand_efficiency_sa>  (1) 
-0.51921574464236397

>  <r_i_glide_lipo>  (1) 
-1.953686877071986

>  <r_i_glide_metal>  (1) 
-0

>  <r_i_glide_rewards>  (1) 
-1.9970413873769621

>  <r_lp_Energy>  (1) 
19.922726999999998

>  <s_epik_cmdline>  (1) 
J2VwaWtfcHl0aG9uJywgJy1waHQnLCAnMS4wJywgJy1waCcsICc3LjQnLCAnLXRuJywgJzgnLCAnLW1hJywgJzUwMCcsICctaW1hZScsICc8aW5maWxlLm1hZT4nLCAnLW9tYWUnLCAnPG91dGZpbGUubWFlPic=

>  <s_epik_input>  (1) 
W2NIXTFbY0hdb1tjSF1jMU4yW0NIMl1bQ0gyXVtDSF0oW0NIMl1bQ0gyXTIpW0NIMl1bQ0gyXVtDSDJdW0NASF0oW0NIMl0zKVNbQ0BASF0oW0NIMl1bT0hdKVtDQF0zKFtPSF0pQyg9TylbT0hd

>  <s_glide_docking_method>  (1) 
confgen

>  <s_i_glide_gridfile>  (1) 
gpcr_drd2_6luq_protein_autoprepared_prepared

>  <s_lp_Force_Field>  (1) 
S-OPLS

>  <s_lp_Variant>  (1) 
DiffSBDD_61_num_sample_100-2

>  <s_m_source_file>  (1) 
generated__ligand_DiffSBDD_2026-05-06_prepared.sdf

>  <GenAI_Model>  (1) 
DiffSBDD

>  <Protein>  (1) 
generic_title2

$$$$
DiffSBDD_6_num_sample_100
     RDKit          3D

  0  0  0  0  0  0  0  0  0  0999 V3000
M  V30 BEGIN CTAB
M  V30 COUNTS 65 68 0 0 1
M  V30 BEGIN ATOM
M  V30 1 N 6.759611 5.178096 -14.463407 0
M  V30 2 N 10.771222 7.618868 -9.176500 0
M  V30 3 C 10.998404 7.156128 -7.855078 0
M  V30 4 C 8.675038 6.144131 -7.526668 0
M  V30 5 C 8.932650 4.680394 -18.874442 0
M  V30 6 N 8.234707 6.469049 -11.091723 0 CFG=2 CHG=1
M  V30 7 C 6.802732 5.578731 -15.818538 0
M  V30 8 F 13.358477 7.723387 -8.104289 0
M  V30 9 C 6.027533 4.119033 -11.110613 0
M  V30 10 C 6.605063 3.753837 -14.120840 0
M  V30 11 C 9.109522 5.955795 -10.008904 0 CFG=1
M  V30 12 F 9.850438 4.248195 -18.007389 0
M  V30 13 C 7.869000 5.565313 -12.241346 0 CFG=2
M  V30 14 C 9.511487 7.412747 -9.842080 0 CFG=2
M  V30 15 C 9.331925 7.441022 -11.347741 0
M  V30 16 F 8.634841 3.678615 -19.701526 0
M  V30 17 C 5.407316 6.294508 -18.527787 0
M  V30 18 C 5.071061 6.696995 -17.304671 0
M  V30 19 C 7.672952 5.173626 -18.171694 0
M  V30 20 C 6.818395 6.119875 -13.291233 0 CFG=1
M  V30 21 F 11.834804 9.635131 -9.084652 0
M  V30 22 C 5.989036 6.787378 -16.152605 0
M  V30 23 C 6.717336 5.789326 -18.940362 0
M  V30 24 C 8.486814 5.303631 -8.790405 0
M  V30 25 C 7.207406 7.587186 -13.576538 0
M  V30 26 F 12.234064 8.513273 -6.426874 0
M  V30 27 C 10.085746 6.477733 -7.111311 0
M  V30 28 C 7.430332 4.161995 -11.776660 0 CFG=2
M  V30 29 C 7.539245 4.898711 -16.721668 0
M  V30 30 C 12.343044 7.483040 -7.272932 0
M  V30 31 C 7.523551 3.251957 -13.004604 0
M  V30 32 C 11.653198 8.564010 -9.840199 0
M  V30 33 F 9.475331 5.663913 -19.594515 0
M  V30 34 H 8.157988 5.678706 -6.690941 0
M  V30 35 H 8.234872 7.123943 -7.603398 0
M  V30 36 H 5.216561 4.274040 -11.818610 0
M  V30 37 H 5.834838 3.159281 -10.631671 0
M  V30 38 H 5.902997 4.890157 -10.354471 0
M  V30 39 H 5.564368 3.593047 -13.841660 0
M  V30 40 H 6.738168 3.118445 -14.997013 0
M  V30 41 H 9.891763 5.326557 -10.435051 0
M  V30 42 H 8.806945 5.430092 -12.784826 0
M  V30 43 H 8.842652 8.109883 -9.361033 0
M  V30 44 H 10.178773 7.043797 -11.915401 0
M  V30 45 H 9.024918 8.422090 -11.705424 0
M  V30 46 H 4.645423 6.360504 -19.289667 0
M  V30 47 H 4.066548 7.054256 -17.134637 0
M  V30 48 H 5.824734 6.146045 -12.846797 0
M  V30 49 H 5.303697 7.007591 -15.334526 0
M  V30 50 H 6.633754 7.645058 -16.335231 0
M  V30 51 H 6.938527 5.862922 -19.995752 0
M  V30 52 H 8.956383 4.338393 -8.615683 0
M  V30 53 H 7.432281 5.107474 -8.923485 0
M  V30 54 H 7.092576 8.168933 -12.666636 0
M  V30 55 H 8.234907 7.648723 -13.891720 0
M  V30 56 H 6.634385 8.159156 -14.291273 0
M  V30 57 H 10.357059 6.173068 -6.110406 0
M  V30 58 H 8.160457 3.771326 -11.070215 0
M  V30 59 H 8.119932 4.073271 -16.341727 0
M  V30 60 H 12.596979 6.571480 -6.705700 0
M  V30 61 H 7.260000 2.227752 -12.740274 0
M  V30 62 H 8.550075 3.208970 -13.371016 0
M  V30 63 H 12.601602 8.146194 -10.176736 0
M  V30 64 H 11.150741 8.968778 -10.692489 0
M  V30 65 H 7.445162 6.927222 -10.618103 0
M  V30 END ATOM
M  V30 BEGIN BOND
M  V30 1 1 3 2
M  V30 2 1 7 1
M  V30 3 1 10 1
M  V30 4 1 11 6
M  V30 5 1 12 5
M  V30 6 1 13 6
M  V30 7 1 14 2
M  V30 8 1 14 11
M  V30 9 1 15 6
M  V30 10 1 15 14
M  V30 11 1 16 5
M  V30 12 2 18 17
M  V30 13 1 19 5
M  V30 14 1 20 1
M  V30 15 1 20 13
M  V30 16 1 22 7
M  V30 17 1 22 18
M  V30 18 1 23 17
M  V30 19 2 23 19
M  V30 20 1 24 4
M  V30 21 1 24 11
M  V30 22 1 25 20
M  V30 23 2 27 3
M  V30 24 1 27 4
M  V30 25 1 28 9
M  V30 26 1 28 13
M  V30 27 2 29 7
M  V30 28 1 29 19
M  V30 29 1 30 3
M  V30 30 1 30 8
M  V30 31 1 30 26
M  V30 32 1 31 10
M  V30 33 1 31 28
M  V30 34 1 32 2
M  V30 35 1 32 21
M  V30 36 1 33 5
M  V30 37 1 34 4
M  V30 38 1 35 4
M  V30 39 1 36 9
M  V30 40 1 37 9
M  V30 41 1 38 9
M  V30 42 1 39 10
M  V30 43 1 40 10
M  V30 44 1 11 41 CFG=3
M  V30 45 1 13 42 CFG=3
M  V30 46 1 14 43 CFG=1
M  V30 47 1 44 15
M  V30 48 1 45 15
M  V30 49 1 46 17
M  V30 50 1 47 18
M  V30 51 1 20 48 CFG=1
M  V30 52 1 49 22
M  V30 53 1 50 22
M  V30 54 1 51 23
M  V30 55 1 52 24
M  V30 56 1 53 24
M  V30 57 1 54 25
M  V30 58 1 55 25
M  V30 59 1 56 25
M  V30 60 1 57 27
M  V30 61 1 28 58 CFG=1
M  V30 62 1 59 29
M  V30 63 1 60 30
M  V30 64 1 61 31
M  V30 65 1 62 31
M  V30 66 1 63 32
M  V30 67 1 64 32
M  V30 68 1 6 65 CFG=1
M  V30 END BOND
M  V30 END CTAB
M  END
>  <i_epik_Tot_Q>  (1) 
1

>  <i_epik_Tot_abs_Q>  (1) 
1

>  <i_i_glide_confnum>  (1) 
39

>  <i_i_glide_lignum>  (1) 
10

>  <i_i_glide_posenum>  (1) 
6

>  <i_i_glide_rotatable_bonds>  (1) 
5

>  <i_lp_mmshare_version>  (1) 
72125

>  <i_m_source_file_index>  (1) 
7

>  <i_f3d_flags>  (1) 
0

>  <num_sample>  (1) 
100

>  <b_lp_Chiralities_Consistent>  (1) 
1

>  <r_epik_Charging_Adjusted_Penalty>  (1) 
2.2946868864184928

>  <r_epik_Ionization_Penalty>  (1) 
1.147343534253078

>  <r_epik_Ionization_Penalty_Charging>  (1) 
1.1473434712357071

>  <r_epik_Ionization_Penalty_Neutral>  (1) 
6.301737089438289e-08

>  <r_epik_State_Penalty>  (1) 
1.1473434151827855

>  <r_glide_ring_energy>  (1) 
0.067460085264317238

>  <r_i_docking_score>  (1) 
-4.4339117279761577

>  <r_i_glide_ecoul>  (1) 
-7.5063802332819538

>  <r_i_glide_eff_state_penalty>  (1) 
1.1473434151827855

>  <r_i_glide_einternal>  (1) 
17.557302030303894

>  <r_i_glide_emodel>  (1) 
-22.251583788954871

>  <r_i_glide_emodel_strain>  (1) 
3.9602843125707068

>  <r_i_glide_energy>  (1) 
-26.732541601956875

>  <r_i_glide_erotb>  (1) 
0.17835229215497114

>  <r_i_glide_esite>  (1) 
-0.10686377897983085

>  <r_i_glide_evdw>  (1) 
-19.226161368674923

>  <r_i_glide_gscore>  (1) 
-5.581255143158943

>  <r_i_glide_gscore_strain>  (1) 
0

>  <r_i_glide_hbond>  (1) 
-0.19716692636057667

>  <r_i_glide_ligand_efficiency>  (1) 
-0.13436096145382295

>  <r_i_glide_ligand_efficiency_ln>  (1) 
-0.98607901073563253

>  <r_i_glide_ligand_efficiency_sa>  (1) 
-0.43096739647438315

>  <r_i_glide_lipo>  (1) 
-1.9694119672662052

>  <r_i_glide_metal>  (1) 
-0

>  <r_i_glide_rewards>  (1) 
-1.3988996592812615

>  <r_lp_Energy>  (1) 
64.529619999999994

>  <s_epik_Chemistry_Notes>  (1) 
This compound has an imine and may undergo hydrolysis.

>  <s_epik_cmdline>  (1) 
J2VwaWtfcHl0aG9uJywgJy1waHQnLCAnMS4wJywgJy1waCcsICc3LjQnLCAnLXRuJywgJzgnLCAnLW1hJywgJzUwMCcsICctaW1hZScsICc8aW5maWxlLm1hZT4nLCAnLW9tYWUnLCAnPG91dGZpbGUubWFlPic=

>  <s_epik_input>  (1) 
W0NIMl0xW0NIXT1bQ0hdW0NIXT1DKEMoRikoRilGKVtDSF09QzFOMltDSDJdW0NIMl1bQ0BIXShbQ0gzXSlbQ0BASF0oW0NASF0yW0NIM10pTjNbQ0gyXVtDQEBIXShbQ0BIXTM0KU4oW0NIMl1GKUMoW0NIXShGKUYpPVtDSF1bQ0gyXVtDSDJdNA==

>  <s_glide_docking_method>  (1) 
confgen

>  <s_i_glide_gridfile>  (1) 
gpcr_drd2_6luq_protein_autoprepared_prepared

>  <s_lp_Force_Field>  (1) 
S-OPLS

>  <s_lp_Variant>  (1) 
DiffSBDD_6_num_sample_100-2

>  <s_m_source_file>  (1) 
generated__ligand_DiffSBDD_2026-05-06_prepared.sdf

>  <GenAI_Model>  (1) 
DiffSBDD

>  <Protein>  (1) 
generic_title2

$$$$
DiffSBDD_68_num_sample_100
     RDKit          3D

  0  0  0  0  0  0  0  0  0  0999 V3000
M  V30 BEGIN CTAB
M  V30 COUNTS 88 93 0 0 1
M  V30 BEGIN ATOM
M  V30 1 C 7.093159 3.951676 -13.940415 0
M  V30 2 C 5.466053 7.054931 -15.034262 0
M  V30 3 C 9.114711 9.186863 -23.393613 0
M  V30 4 C 5.605034 7.321237 -19.730386 0
M  V30 5 C 9.216558 5.723658 -7.827253 0
M  V30 6 C 9.598789 6.388303 -11.877827 0 CFG=1
M  V30 7 O 9.123662 3.548863 -12.691589 0
M  V30 8 C 7.456026 8.169061 -12.786817 0
M  V30 9 O 8.435939 4.570590 -8.011727 0
M  V30 10 C 5.072794 4.845696 -19.604460 0
M  V30 11 C 9.670415 7.907357 -11.791386 0
M  V30 12 C 10.140626 8.258191 -22.905867 0
M  V30 13 C 7.542565 8.609812 -21.537660 0 CFG=2
M  V30 14 C 9.247691 5.696320 -10.479226 0 CFG=2
M  V30 15 C 7.434299 5.612956 -15.751776 0 CFG=1
M  V30 16 C 8.523031 7.638135 -20.964028 0 CFG=2
M  V30 17 O 8.635264 6.579966 -6.862953 0
M  V30 18 C 9.879497 7.497785 -21.610788 0
M  V30 19 C 13.404621 8.169217 -9.426867 0
M  V30 20 C 7.379889 6.733218 -13.332984 0 CFG=1
M  V30 21 C 5.476273 6.161070 -17.382088 0 CFG=2
M  V30 22 C 5.115924 7.364833 -16.504348 0
M  V30 23 O 7.851216 5.406055 -10.431949 0
M  V30 24 O 10.948444 6.878367 -9.140957 0
M  V30 25 C 7.248292 7.127519 -21.591696 0 CFG=1
M  V30 26 C 8.376774 4.383753 -13.194199 0
M  V30 27 C 11.381148 7.650099 -8.022920 0 CFG=1
M  V30 28 C 6.974612 5.792727 -17.224844 0
M  V30 29 C 8.313688 8.411178 -11.639097 0
M  V30 30 C 6.958517 6.783444 -14.839229 0 CFG=2
M  V30 31 C 12.765326 8.203837 -8.252478 0
M  V30 32 O 10.508589 8.719453 -7.725205 0
M  V30 33 C 7.940170 9.329698 -22.752561 0
M  V30 34 C 8.678446 5.908909 -13.092093 0 CFG=2
M  V30 35 C 11.032641 6.168594 -12.291711 0
M  V30 36 O 10.337940 8.782427 -6.284522 0
M  V30 37 N 6.324952 6.510158 -20.687715 0
M  V30 38 S 11.545749 8.087803 -23.776680 0
M  V30 39 C 6.064489 5.224550 -20.660582 0
M  V30 40 O 7.034330 4.314308 -15.323920 0
M  V30 41 O 6.572212 4.389675 -21.407002 0
M  V30 42 C 4.940255 6.219449 -18.844225 0 CFG=1
M  V30 43 C 9.576102 6.480577 -9.149149 0 CFG=2
M  V30 44 H 7.004067 2.866571 -13.883111 0
M  V30 45 H 6.210902 4.333868 -13.430323 0
M  V30 46 H 5.137161 7.880678 -14.403533 0
M  V30 47 H 4.939610 6.166488 -14.689376 0
M  V30 48 H 9.306938 9.768938 -24.270192 0
M  V30 49 H 4.866371 7.941746 -20.238136 0
M  V30 50 H 6.234552 7.960978 -19.130039 0
M  V30 51 H 10.136419 5.342242 -7.392261 0
M  V30 52 H 6.501702 8.424132 -12.291724 0
M  V30 53 H 7.829985 8.886215 -13.523062 0
M  V30 54 H 7.967382 4.680015 -8.836266 0
M  V30 55 H 5.430435 4.028894 -18.978214 0
M  V30 56 H 4.138741 4.550923 -20.081204 0
M  V30 57 H 10.301471 8.272894 -10.982232 0
M  V30 58 H 10.075883 8.340237 -12.691835 0
M  V30 59 H 7.008328 9.248570 -20.838860 0
M  V30 60 H 9.752512 4.731478 -10.434505 0
M  V30 61 H 8.522786 5.605777 -15.794764 0
M  V30 62 H 8.561814 7.566745 -19.880065 0
M  V30 63 H 7.739304 6.821372 -7.133301 0
M  V30 64 H 10.070961 6.436943 -21.773137 0
M  V30 65 H 14.398254 8.572449 -9.532194 0
M  V30 66 H 12.944088 7.741408 -10.292236 0
M  V30 67 H 6.582659 6.264046 -12.754794 0
M  V30 68 H 4.903626 5.369511 -16.926470 0
M  V30 69 H 5.637620 8.261432 -16.838911 0
M  V30 70 H 4.049681 7.577525 -16.588696 0
M  V30 71 H 7.400675 6.239377 -10.288133 0
M  V30 72 H 7.345702 6.663588 -22.573659 0
M  V30 73 H 11.490029 6.979217 -7.168318 0
M  V30 74 H 7.573030 6.569154 -17.693989 0
M  V30 75 H 7.210551 4.885145 -17.779438 0
M  V30 76 H 7.833504 7.673205 -11.091656 0
M  V30 77 H 8.211939 9.370264 -11.145348 0
M  V30 78 H 7.435076 7.666543 -15.243606 0
M  V30 79 H 13.250015 8.651171 -7.398283 0
M  V30 80 H 7.217076 10.026896 -23.149859 0
M  V30 81 H 9.293646 6.102000 -13.959860 0
M  V30 82 H 11.287848 6.525162 -13.288968 0
M  V30 83 H 11.764702 6.569021 -11.599296 0
M  V30 84 H 11.088952 5.092762 -12.291502 0
M  V30 85 H 9.634230 8.151226 -6.175376 0
M  V30 86 H 10.621720 7.838411 -20.886152 0
M  V30 87 H 3.880581 6.460970 -18.768359 0
M  V30 88 H 9.034892 7.417464 -9.166446 0
M  V30 END ATOM
M  V30 BEGIN BOND
M  V30 1 1 9 5
M  V30 2 1 11 6
M  V30 3 1 12 3
M  V30 4 1 14 6
M  V30 5 1 16 13
M  V30 6 1 17 5
M  V30 7 1 18 12
M  V30 8 1 18 16
M  V30 9 1 20 8
M  V30 10 1 22 2
M  V30 11 1 22 21
M  V30 12 1 23 14
M  V30 13 1 25 13
M  V30 14 1 25 16
M  V30 15 1 26 1
M  V30 16 2 26 7
M  V30 17 1 27 24
M  V30 18 1 28 15
M  V30 19 1 28 21
M  V30 20 1 29 8
M  V30 21 1 29 11
M  V30 22 1 30 2
M  V30 23 1 30 15
M  V30 24 1 30 20
M  V30 25 2 31 19
M  V30 26 1 31 27
M  V30 27 1 32 27
M  V30 28 2 33 3
M  V30 29 1 33 13
M  V30 30 1 34 6
M  V30 31 1 34 20
M  V30 32 1 34 26
M  V30 33 1 6 35 CFG=3
M  V30 34 1 36 32
M  V30 35 1 37 4
M  V30 36 1 37 25
M  V30 37 2 38 12
M  V30 38 1 39 10
M  V30 39 1 39 37
M  V30 40 1 40 1
M  V30 41 1 40 15
M  V30 42 2 41 39
M  V30 43 1 42 4
M  V30 44 1 42 10
M  V30 45 1 42 21
M  V30 46 1 43 5
M  V30 47 1 43 14
M  V30 48 1 43 24
M  V30 49 1 44 1
M  V30 50 1 45 1
M  V30 51 1 46 2
M  V30 52 1 47 2
M  V30 53 1 48 3
M  V30 54 1 49 4
M  V30 55 1 50 4
M  V30 56 1 51 5
M  V30 57 1 52 8
M  V30 58 1 53 8
M  V30 59 1 54 9
M  V30 60 1 55 10
M  V30 61 1 56 10
M  V30 62 1 57 11
M  V30 63 1 58 11
M  V30 64 1 13 59 CFG=1
M  V30 65 1 14 60 CFG=1
M  V30 66 1 15 61 CFG=3
M  V30 67 1 16 62 CFG=1
M  V30 68 1 63 17
M  V30 69 1 64 18
M  V30 70 1 65 19
M  V30 71 1 66 19
M  V30 72 1 20 67 CFG=1
M  V30 73 1 21 68 CFG=1
M  V30 74 1 69 22
M  V30 75 1 70 22
M  V30 76 1 71 23
M  V30 77 1 25 72 CFG=3
M  V30 78 1 27 73 CFG=1
M  V30 79 1 74 28
M  V30 80 1 75 28
M  V30 81 1 76 29
M  V30 82 1 77 29
M  V30 83 1 30 78 CFG=3
M  V30 84 1 79 31
M  V30 85 1 80 33
M  V30 86 1 34 81 CFG=3
M  V30 87 1 82 35
M  V30 88 1 83 35
M  V30 89 1 84 35
M  V30 90 1 85 36
M  V30 91 1 86 18
M  V30 92 1 42 87 CFG=1
M  V30 93 1 43 88 CFG=3
M  V30 END BOND
M  V30 END CTAB
M  END
>  <i_epik_Tot_Q>  (1) 
0

>  <i_epik_Tot_abs_Q>  (1) 
0

>  <i_i_glide_confnum>  (1) 
96

>  <i_i_glide_lignum>  (1) 
137

>  <i_i_glide_posenum>  (1) 
373

>  <i_i_glide_rotatable_bonds>  (1) 
13

>  <i_lp_mmshare_version>  (1) 
72125

>  <i_m_source_file_index>  (1) 
69

>  <i_f3d_flags>  (1) 
0

>  <num_sample>  (1) 
100

>  <b_lp_Chiralities_Consistent>  (1) 
1

>  <r_epik_Charging_Adjusted_Penalty>  (1) 
0

>  <r_epik_Ionization_Penalty>  (1) 
0.00032218278010154739

>  <r_epik_Ionization_Penalty_Charging>  (1) 
0

>  <r_epik_Ionization_Penalty_Neutral>  (1) 
0.00032218278010154739

>  <r_epik_State_Penalty>  (1) 
-0

>  <r_glide_ring_energy>  (1) 
0

>  <r_i_docking_score>  (1) 
-4.4257377866293997

>  <r_i_glide_ecoul>  (1) 
-7.9558470832152572

>  <r_i_glide_eff_state_penalty>  (1) 
-0

>  <r_i_glide_einternal>  (1) 
12.474588796765392

>  <r_i_glide_emodel>  (1) 
-15.826731838165195

>  <r_i_glide_emodel_strain>  (1) 
7.0036678896642712

>  <r_i_glide_energy>  (1) 
-23.97257622232376

>  <r_i_glide_erotb>  (1) 
0.36271052330308029

>  <r_i_glide_esite>  (1) 
-0.07616970358985059

>  <r_i_glide_evdw>  (1) 
-16.016729139108502

>  <r_i_glide_gscore>  (1) 
-4.4257377866293997

>  <r_i_glide_gscore_strain>  (1) 
0.75091697241606781

>  <r_i_glide_hbond>  (1) 
-0.14399999999999999

>  <r_i_glide_ligand_efficiency>  (1) 
-0.10292413457277673

>  <r_i_glide_ligand_efficiency_ln>  (1) 
-0.92954248489610158

>  <r_i_glide_ligand_efficiency_sa>  (1) 
-0.36058421342924829

>  <r_i_glide_lipo>  (1) 
-2.2718754769170113

>  <r_i_glide_metal>  (1) 
-0

>  <r_i_glide_rewards>  (1) 
-1.0531065824039716

>  <r_lp_Energy>  (1) 
44.537447999999998

>  <r_lp_tautomer_probability>  (1) 
1

>  <s_epik_Chemistry_Notes>  (1) 
This compound contains an acetal/aminal-like group ( X-CH(R)-Y where X, Y are N, S, or O) that may be acid/base labile, releasing an aldehyde.

>  <s_epik_cmdline>  (1) 
J2VwaWtfcHl0aG9uJywgJy1waHQnLCAnMS4wJywgJy1waCcsICc3LjQnLCAnLXRuJywgJzgnLCAnLW1hJywgJzUwMCcsICctaW1hZScsICc8aW5maWxlLm1hZT4nLCAnLW9tYWUnLCAnPG91dGZpbGUubWFlPic=

>  <s_epik_input>  (1) 
W0NIMl09W0NIXVtDQEBIXShPW09IXSlPW0NASF0oW0NIXShbT0hdKVtPSF0pW0NAQEhdKFtPSF0pW0NAXShbQ0gzXSkoW0NIMl1bQ0gyXVtDSDJdMSlbQ0BASF0oQyg9TylbQ0gyXU8yKVtDQEBIXTFbQ0BASF0oW0NAQEhdMjMpW0NIMl1bQ0gyXVtDQEhdKFtDSDJdMylbQ0BIXShbQ0gyXUM0PU8pW0NIMl1ONFtDQEBIXTVbQ0BIXShbQ0BIXTU2KVtDSF09QyhbU0hdKVtDSF09W0NIXTY=

>  <s_glide_docking_method>  (1) 
confgen

>  <s_i_glide_gridfile>  (1) 
gpcr_drd2_6luq_protein_autoprepared_prepared

>  <s_lp_Force_Field>  (1) 
S-OPLS

>  <s_lp_Variant>  (1) 
DiffSBDD_68_num_sample_100-1

>  <s_m_source_file>  (1) 
generated__ligand_DiffSBDD_2026-05-06_prepared.sdf

>  <GenAI_Model>  (1) 
DiffSBDD

>  <Protein>  (1) 
generic_title2

$$$$
DiffSBDD_45_num_sample_100
     RDKit          3D

  0  0  0  0  0  0  0  0  0  0999 V3000
M  V30 BEGIN CTAB
M  V30 COUNTS 63 65 0 0 1
M  V30 BEGIN ATOM
M  V30 1 C 5.652468 6.050592 -18.816985 0
M  V30 2 C 10.679476 7.812611 -10.446794 0
M  V30 3 C 6.972863 6.529408 -19.451756 0
M  V30 4 C 11.438157 8.304881 -6.692852 0 CFG=2
M  V30 5 C 11.596349 7.744430 -8.130046 0 CFG=1
M  V30 6 C 10.123831 6.246788 -6.179419 0
M  V30 7 C 7.709762 4.120005 -14.545757 0
M  V30 8 C 6.836032 5.235282 -16.711668 0 CFG=1
M  V30 9 O 8.234842 3.298253 -15.294798 0
M  V30 10 N 10.397941 7.827098 -8.992501 0
M  V30 11 Cl 12.977989 8.569300 -8.894017 0
M  V30 12 C 7.544593 6.415146 -12.317555 0 CFG=1
M  V30 13 C 5.609062 4.675146 -12.139261 0
M  V30 14 C 8.194840 6.050929 -18.684988 0
M  V30 15 C 9.055568 6.553019 -12.010402 0
M  V30 16 N 10.986440 7.326676 -5.699076 0
M  V30 17 C 7.075766 7.143110 -13.590205 0
M  V30 18 C 9.460576 7.905632 -11.394127 0
M  V30 19 C 8.136353 5.475965 -17.469208 0
M  V30 20 C 9.512638 6.716702 -8.620517 0
M  V30 21 C 7.116966 4.939233 -12.249098 0 CFG=1
M  V30 22 C 6.915159 5.304675 -15.150232 0 CFG=2
M  V30 23 F 10.635001 9.362259 -6.649817 0
M  V30 24 O 7.522405 6.544319 -14.796615 0
M  V30 25 C 5.695291 6.108536 -17.280911 0
M  V30 26 C 9.036778 6.714991 -7.156345 0
M  V30 27 N 7.811660 4.029741 -13.189228 0
M  V30 28 C 8.641606 2.981726 -12.588047 0
M  V30 29 H 5.458017 5.022516 -19.126636 0
M  V30 30 H 4.819850 6.644226 -19.196475 0
M  V30 31 H 11.310250 6.969178 -10.715991 0
M  V30 32 H 11.267032 8.693594 -10.691401 0
M  V30 33 H 6.996690 7.617833 -19.491743 0
M  V30 34 H 7.036484 6.178585 -20.482366 0
M  V30 35 H 12.392172 8.711910 -6.363102 0
M  V30 36 H 11.880840 6.701577 -8.061248 0
M  V30 37 H 9.657036 5.771960 -5.317699 0
M  V30 38 H 10.725365 5.473933 -6.659011 0
M  V30 39 H 6.634807 4.200670 -16.982485 0
M  V30 40 H 7.021418 6.899328 -11.491754 0
M  V30 41 H 5.207029 5.122755 -11.229371 0
M  V30 42 H 5.034686 5.075563 -12.964592 0
M  V30 43 H 5.434699 3.601971 -12.085298 0
M  V30 44 H 9.153247 6.194574 -19.162518 0
M  V30 45 H 9.335166 5.775324 -11.300481 0
M  V30 46 H 9.648960 6.343650 -12.901003 0
M  V30 47 H 11.783132 6.923195 -5.218231 0
M  V30 48 H 7.449939 8.166983 -13.575321 0
M  V30 49 H 5.988408 7.228784 -13.606356 0
M  V30 50 H 9.693533 8.569717 -12.223723 0
M  V30 51 H 8.634975 8.385164 -10.869331 0
M  V30 52 H 9.048057 5.160226 -16.983679 0
M  V30 53 H 8.634842 6.719302 -9.254004 0
M  V30 54 H 9.998496 5.765160 -8.839884 0
M  V30 55 H 7.435839 4.646160 -11.249133 0
M  V30 56 H 5.884928 5.257682 -14.815395 0
M  V30 57 H 4.736484 5.780832 -16.877693 0
M  V30 58 H 5.826526 7.143051 -16.961075 0
M  V30 59 H 8.627116 7.682931 -6.867301 0
M  V30 60 H 8.215567 6.005254 -7.084365 0
M  V30 61 H 8.314587 1.985684 -12.889692 0
M  V30 62 H 9.672212 3.124373 -12.901049 0
M  V30 63 H 8.687447 3.013879 -11.503575 0
M  V30 END ATOM
M  V30 BEGIN BOND
M  V30 1 1 3 1
M  V30 2 1 5 4
M  V30 3 2 9 7
M  V30 4 1 10 2
M  V30 5 1 10 5
M  V30 6 1 11 5
M  V30 7 1 14 3
M  V30 8 1 15 12
M  V30 9 1 16 4
M  V30 10 1 16 6
M  V30 11 1 17 12
M  V30 12 1 18 2
M  V30 13 1 18 15
M  V30 14 1 19 8
M  V30 15 2 19 14
M  V30 16 1 20 10
M  V30 17 1 21 12
M  V30 18 1 21 13
M  V30 19 1 22 7
M  V30 20 1 22 8
M  V30 21 1 23 4
M  V30 22 1 24 17
M  V30 23 1 24 22
M  V30 24 1 25 1
M  V30 25 1 25 8
M  V30 26 1 26 6
M  V30 27 1 26 20
M  V30 28 1 27 7
M  V30 29 1 27 21
M  V30 30 1 28 27
M  V30 31 1 29 1
M  V30 32 1 30 1
M  V30 33 1 31 2
M  V30 34 1 32 2
M  V30 35 1 33 3
M  V30 36 1 34 3
M  V30 37 1 4 35 CFG=1
M  V30 38 1 5 36 CFG=1
M  V30 39 1 37 6
M  V30 40 1 38 6
M  V30 41 1 8 39 CFG=1
M  V30 42 1 12 40 CFG=1
M  V30 43 1 41 13
M  V30 44 1 42 13
M  V30 45 1 43 13
M  V30 46 1 44 14
M  V30 47 1 45 15
M  V30 48 1 46 15
M  V30 49 1 47 16
M  V30 50 1 48 17
M  V30 51 1 49 17
M  V30 52 1 50 18
M  V30 53 1 51 18
M  V30 54 1 52 19
M  V30 55 1 53 20
M  V30 56 1 54 20
M  V30 57 1 21 55 CFG=1
M  V30 58 1 22 56 CFG=1
M  V30 59 1 57 25
M  V30 60 1 58 25
M  V30 61 1 59 26
M  V30 62 1 60 26
M  V30 63 1 61 28
M  V30 64 1 62 28
M  V30 65 1 63 28
M  V30 END BOND
M  V30 END CTAB
M  END
>  <i_epik_Tot_Q>  (1) 
0

>  <i_epik_Tot_abs_Q>  (1) 
0

>  <i_i_glide_confnum>  (1) 
150

>  <i_i_glide_lignum>  (1) 
83

>  <i_i_glide_posenum>  (1) 
327

>  <i_i_glide_rotatable_bonds>  (1) 
5

>  <i_lp_mmshare_version>  (1) 
72125

>  <i_m_source_file_index>  (1) 
46

>  <i_f3d_flags>  (1) 
0

>  <num_sample>  (1) 
100

>  <b_lp_Chiralities_Consistent>  (1) 
1

>  <r_epik_Charging_Adjusted_Penalty>  (1) 
0.015133208647659156

>  <r_epik_Ionization_Penalty>  (1) 
0.015206278080010002

>  <r_epik_Ionization_Penalty_Charging>  (1) 
0

>  <r_epik_Ionization_Penalty_Neutral>  (1) 
0.015206278080010002

>  <r_epik_State_Penalty>  (1) 
0.015133208647659156

>  <r_glide_ring_energy>  (1) 
0.62881631163641161

>  <r_i_docking_score>  (1) 
-4.4239606873045805

>  <r_i_glide_ecoul>  (1) 
-1.5661040379483766

>  <r_i_glide_eff_state_penalty>  (1) 
0.015133208647659156

>  <r_i_glide_einternal>  (1) 
6.6959885593451389

>  <r_i_glide_emodel>  (1) 
-32.657116325591915

>  <r_i_glide_emodel_strain>  (1) 
0.49269058879929162

>  <r_i_glide_energy>  (1) 
-30.497561889691848

>  <r_i_glide_erotb>  (1) 
0.45657733151366331

>  <r_i_glide_esite>  (1) 
0

>  <r_i_glide_evdw>  (1) 
-28.93145785174347

>  <r_i_glide_gscore>  (1) 
-4.4390938959522392

>  <r_i_glide_gscore_strain>  (1) 
0

>  <r_i_glide_hbond>  (1) 
0

>  <r_i_glide_ligand_efficiency>  (1) 
-0.15799859597516358

>  <r_i_glide_ligand_efficiency_ln>  (1) 
-1.0211800197598855

>  <r_i_glide_ligand_efficiency_sa>  (1) 
-0.47977679411002028

>  <r_i_glide_lipo>  (1) 
-1.609802020628289

>  <r_i_glide_metal>  (1) 
-0

>  <r_i_glide_rewards>  (1) 
-1.6043807085581832

>  <r_lp_Energy>  (1) 
28.740504999999999

>  <s_epik_cmdline>  (1) 
J2VwaWtfcHl0aG9uJywgJy1waHQnLCAnMS4wJywgJy1waCcsICc3LjQnLCAnLXRuJywgJzgnLCAnLW1hJywgJzUwMCcsICctaW1hZScsICc8aW5maWxlLm1hZT4nLCAnLW9tYWUnLCAnPG91dGZpbGUubWFlPic=

>  <s_epik_input>  (1) 
W0NIMl0xW0NIMl1bQ0gyXVtDSF09W0NIXVtDQEhdMVtDQEBIXShDMj1PKU9bQ0gyXVtDQEBIXShbQ0BASF0oW0NIM10pTjJbQ0gzXSlbQ0gyXVtDSDJdW0NIMl1OKFtDQEBIXShDbClbQ0BASF0zRilbQ0gyXVtDSDJdW0NIMl1bTkhdMw==

>  <s_glide_docking_method>  (1) 
confgen

>  <s_i_glide_gridfile>  (1) 
gpcr_drd2_6luq_protein_autoprepared_prepared

>  <s_lp_Force_Field>  (1) 
S-OPLS

>  <s_lp_Variant>  (1) 
DiffSBDD_45_num_sample_100-2

>  <s_m_source_file>  (1) 
generated__ligand_DiffSBDD_2026-05-06_prepared.sdf

>  <GenAI_Model>  (1) 
DiffSBDD

>  <Protein>  (1) 
generic_title2

$$$$
DiffSBDD_70_num_sample_100
     RDKit          3D

  0  0  0  0  0  0  0  0  0  0999 V3000
M  V30 BEGIN CTAB
M  V30 COUNTS 76 78 0 0 1
M  V30 BEGIN ATOM
M  V30 1 C 7.151073 4.995708 -17.975497 0 CFG=1
M  V30 2 C 6.320967 4.251480 -20.151356 0
M  V30 3 C 6.600282 6.569767 -16.218258 0 CFG=1
M  V30 4 C 8.519370 7.433999 -12.047439 0
M  V30 5 C 5.429804 6.007642 -11.753594 0
M  V30 6 Cl 5.171481 4.286552 -12.174555 0
M  V30 7 C 9.637641 7.386015 -11.025556 0
M  V30 8 C 6.695283 2.996404 -19.372432 0
M  V30 9 C 11.323818 7.423962 -8.778874 0
M  V30 10 C 7.424472 3.487706 -18.116176 0
M  V30 11 C 10.175107 6.382630 -8.757992 0 CFG=1
M  V30 12 C 5.112193 6.902886 -16.154517 0
M  V30 13 C 7.416451 6.839548 -14.921203 0
M  V30 14 C 10.493217 9.202598 -6.238921 0
M  V30 15 C 8.268197 6.086697 -12.762418 0 CFG=1
M  V30 16 C 12.087787 7.591389 -7.442730 0 CFG=2
M  V30 17 O 7.404593 7.106623 -20.181489 0
M  V30 18 O 11.432749 10.215111 -5.925377 0
M  V30 19 C 11.127263 7.815844 -6.249549 0 CFG=2
M  V30 20 C 8.307648 4.876376 -11.773107 0
M  V30 21 C 6.106695 5.329307 -19.077418 0 CFG=2
M  V30 22 C 5.894521 6.704165 -13.026795 0
M  V30 23 C 9.260160 6.613913 -7.546652 0
M  V30 24 O 6.734019 5.217129 -16.626632 0
M  V30 25 C 10.075096 6.702166 -6.245194 0
M  V30 26 C 6.139503 6.769647 -19.656471 0
M  V30 27 C 9.341005 4.985301 -10.668943 0
M  V30 28 O 13.806519 8.569215 -8.745952 0
M  V30 29 O 5.109346 6.941875 -20.604482 0
M  V30 30 F 11.727464 7.680787 -5.064905 0
M  V30 31 N 9.367498 6.326679 -10.020214 0 CFG=2 CHG=1
M  V30 32 N 7.093313 6.122435 -13.674424 0
M  V30 33 O 13.001309 8.686581 -7.530490 0
M  V30 34 H 8.086675 5.524743 -18.159581 0
M  V30 35 H 7.151402 4.518399 -20.809132 0
M  V30 36 H 5.435673 4.099381 -20.774857 0
M  V30 37 H 7.029711 7.212627 -16.982181 0
M  V30 38 H 7.642999 7.771625 -11.504043 0
M  V30 39 H 8.730172 8.215454 -12.771404 0
M  V30 40 H 6.106051 6.128187 -10.912400 0
M  V30 41 H 4.522253 6.427875 -11.350401 0
M  V30 42 H 9.632095 8.371920 -10.564369 0
M  V30 43 H 10.604230 7.237878 -11.510767 0
M  V30 44 H 7.308469 2.314063 -19.963349 0
M  V30 45 H 5.788473 2.460002 -19.086778 0
M  V30 46 H 10.962077 8.422369 -9.015500 0
M  V30 47 H 12.011217 7.135240 -9.573341 0
M  V30 48 H 8.496644 3.300606 -18.190887 0
M  V30 49 H 7.063837 2.939865 -17.243723 0
M  V30 50 H 10.632179 5.406456 -8.602549 0
M  V30 51 H 4.933049 7.875657 -15.694993 0
M  V30 52 H 4.638812 6.909264 -17.133495 0
M  V30 53 H 4.622770 6.122776 -15.583718 0
M  V30 54 H 7.433214 7.914998 -14.728792 0
M  V30 55 H 8.428137 6.569180 -15.202718 0
M  V30 56 H 9.996719 9.369306 -7.186403 0
M  V30 57 H 9.724007 9.231675 -5.491983 0
M  V30 58 H 9.156318 5.916443 -13.373885 0
M  V30 59 H 12.633991 6.688573 -7.175463 0
M  V30 60 H 7.649386 6.469252 -20.833658 0
M  V30 61 H 12.208128 10.072519 -6.450821 0
M  V30 62 H 7.417971 4.660568 -11.219368 0
M  V30 63 H 8.483158 3.962937 -12.343099 0
M  V30 64 H 5.116506 5.156877 -18.651307 0
M  V30 65 H 6.028363 7.768366 -12.839453 0
M  V30 66 H 5.043332 6.649441 -13.687827 0
M  V30 67 H 8.666160 7.518326 -7.677393 0
M  V30 68 H 8.545682 5.794664 -7.465347 0
M  V30 69 H 9.434820 6.823676 -5.381321 0
M  V30 70 H 10.595849 5.769265 -6.081512 0
M  V30 71 H 5.928355 7.494443 -18.870145 0
M  V30 72 H 10.234831 4.770420 -11.202248 0
M  V30 73 H 9.209453 4.177720 -9.947866 0
M  V30 74 H 13.786287 9.462462 -9.091669 0
M  V30 75 H 5.233731 6.333814 -21.318201 0
M  V30 76 H 8.415975 6.514660 -9.716017 0
M  V30 END ATOM
M  V30 BEGIN BOND
M  V30 1 1 6 5
M  V30 2 1 7 4
M  V30 3 1 8 2
M  V30 4 1 10 1
M  V30 5 1 10 8
M  V30 6 1 11 9
M  V30 7 1 12 3
M  V30 8 1 13 3
M  V30 9 1 15 4
M  V30 10 1 16 9
M  V30 11 1 18 14
M  V30 12 1 19 14
M  V30 13 1 19 16
M  V30 14 1 20 15
M  V30 15 1 21 1
M  V30 16 1 21 2
M  V30 17 1 22 5
M  V30 18 1 23 11
M  V30 19 1 24 1
M  V30 20 1 24 3
M  V30 21 1 25 19
M  V30 22 1 25 23
M  V30 23 1 26 17
M  V30 24 1 26 21
M  V30 25 1 27 20
M  V30 26 1 29 26
M  V30 27 1 19 30 CFG=1
M  V30 28 1 31 7
M  V30 29 1 31 11
M  V30 30 1 31 27
M  V30 31 1 32 13
M  V30 32 1 32 15
M  V30 33 1 32 22
M  V30 34 1 33 16
M  V30 35 1 33 28
M  V30 36 1 1 34 CFG=3
M  V30 37 1 35 2
M  V30 38 1 36 2
M  V30 39 1 3 37 CFG=3
M  V30 40 1 38 4
M  V30 41 1 39 4
M  V30 42 1 40 5
M  V30 43 1 41 5
M  V30 44 1 42 7
M  V30 45 1 43 7
M  V30 46 1 44 8
M  V30 47 1 45 8
M  V30 48 1 46 9
M  V30 49 1 47 9
M  V30 50 1 48 10
M  V30 51 1 49 10
M  V30 52 1 11 50 CFG=1
M  V30 53 1 51 12
M  V30 54 1 52 12
M  V30 55 1 53 12
M  V30 56 1 54 13
M  V30 57 1 55 13
M  V30 58 1 56 14
M  V30 59 1 57 14
M  V30 60 1 15 58 CFG=3
M  V30 61 1 16 59 CFG=1
M  V30 62 1 60 17
M  V30 63 1 61 18
M  V30 64 1 62 20
M  V30 65 1 63 20
M  V30 66 1 21 64 CFG=1
M  V30 67 1 65 22
M  V30 68 1 66 22
M  V30 69 1 67 23
M  V30 70 1 68 23
M  V30 71 1 69 25
M  V30 72 1 70 25
M  V30 73 1 71 26
M  V30 74 1 72 27
M  V30 75 1 73 27
M  V30 76 1 74 28
M  V30 77 1 75 29
M  V30 78 1 31 76 CFG=1
M  V30 END BOND
M  V30 END CTAB
M  END
>  <i_epik_Tot_Q>  (1) 
1

>  <i_epik_Tot_abs_Q>  (1) 
1

>  <i_i_glide_confnum>  (1) 
2048

>  <i_i_glide_lignum>  (1) 
142

>  <i_i_glide_posenum>  (1) 
128

>  <i_i_glide_rotatable_bonds>  (1) 
15

>  <i_lp_mmshare_version>  (1) 
72125

>  <i_m_source_file_index>  (1) 
71

>  <i_f3d_flags>  (1) 
0

>  <num_sample>  (1) 
100

>  <b_lp_Chiralities_Consistent>  (1) 
1

>  <r_epik_Charging_Adjusted_Penalty>  (1) 
0.025762522161214964

>  <r_epik_Ionization_Penalty>  (1) 
0.015537266588199847

>  <r_epik_Ionization_Penalty_Charging>  (1) 
0.0050933563181465155

>  <r_epik_Ionization_Penalty_Neutral>  (1) 
0.010443910270053331

>  <r_epik_State_Penalty>  (1) 
0.020669165843068448

>  <r_glide_ring_energy>  (1) 
0

>  <r_i_docking_score>  (1) 
-4.4187338828650953

>  <r_i_glide_ecoul>  (1) 
-11.259859530502123

>  <r_i_glide_eff_state_penalty>  (1) 
0.020669165843068448

>  <r_i_glide_einternal>  (1) 
16.476027248761582

>  <r_i_glide_emodel>  (1) 
-24.553239249465307

>  <r_i_glide_emodel_strain>  (1) 
7.1965908891016568

>  <r_i_glide_energy>  (1) 
-29.290473618558543

>  <r_i_glide_erotb>  (1) 
0.82250602570520104

>  <r_i_glide_esite>  (1) 
-0.11469946327861452

>  <r_i_glide_evdw>  (1) 
-18.030614088056421

>  <r_i_glide_gscore>  (1) 
-4.4394030487081642

>  <r_i_glide_gscore_strain>  (1) 
0.7991477222754142

>  <r_i_glide_hbond>  (1) 
-0.51660639101173789

>  <r_i_glide_ligand_efficiency>  (1) 
-0.13390102675348772

>  <r_i_glide_ligand_efficiency_ln>  (1) 
-0.98270353656960829

>  <r_i_glide_ligand_efficiency_sa>  (1) 
-0.42949214013350157

>  <r_i_glide_lipo>  (1) 
-1.9653651241737089

>  <r_i_glide_metal>  (1) 
-0

>  <r_i_glide_rewards>  (1) 
-0.87387618424657831

>  <r_lp_Energy>  (1) 
60.521072999999994

>  <s_epik_Chemistry_Notes>  (1) 
This compound contains an acetal/aminal-like group ( X-CH(R)-Y where X, Y are N, S, or O) that may be acid/base labile, releasing an aldehyde.

>  <s_epik_cmdline>  (1) 
J2VwaWtfcHl0aG9uJywgJy1waHQnLCAnMS4wJywgJy1waCcsICc3LjQnLCAnLXRuJywgJzgnLCAnLW1hJywgJzUwMCcsICctaW1hZScsICc8aW5maWxlLm1hZT4nLCAnLW9tYWUnLCAnPG91dGZpbGUubWFlPic=

>  <s_epik_input>  (1) 
W09IXVtDSF0oW09IXSlbQ0BIXTFbQ0gyXVtDSDJdW0NIMl1bQ0BASF0xT1tDQEBIXShbQ0gzXSlbQ0gyXU4oW0NIMl1bQ0gyXUNsKVtDSF0yW0NIMl1bQ0gyXU4oW0NIMl1bQ0gyXTIpW0NASF0oW0NIMl1bQ0gyXTMpW0NIMl1bQ0BASF0oT1tPSF0pW0NAQF0zKEYpW0NIMl1bT0hd

>  <s_glide_docking_method>  (1) 
confgen

>  <s_i_glide_gridfile>  (1) 
gpcr_drd2_6luq_protein_autoprepared_prepared

>  <s_lp_Force_Field>  (1) 
S-OPLS

>  <s_lp_Variant>  (1) 
DiffSBDD_70_num_sample_100-2

>  <s_m_source_file>  (1) 
generated__ligand_DiffSBDD_2026-05-06_prepared.sdf

>  <GenAI_Model>  (1) 
DiffSBDD

>  <Protein>  (1) 
generic_title2

$$$$
DiffSBDD_74_num_sample_100
     RDKit          3D

  0  0  0  0  0  0  0  0  0  0999 V3000
M  V30 BEGIN CTAB
M  V30 COUNTS 50 51 0 0 1
M  V30 BEGIN ATOM
M  V30 1 C 6.235293 3.935765 -19.138527 0
M  V30 2 C 8.389567 7.368211 -12.291623 0
M  V30 3 F 8.595748 5.640942 -15.028085 0
M  V30 4 C 6.626815 5.467176 -21.679855 0 CFG=1
M  V30 5 O 5.619642 4.789124 -11.819902 0
M  V30 6 C 6.315157 6.969316 -13.726088 0
M  V30 7 C 5.434872 6.234026 -18.465429 0
M  V30 8 C 5.309217 5.482362 -20.869719 0 CFG=2
M  V30 9 F 5.817263 6.819509 -23.458888 0
M  V30 10 C 7.567658 3.853928 -19.901558 0
M  V30 11 F 8.426850 4.732734 -19.382333 0
M  V30 12 F 4.634890 6.614181 -21.077519 0
M  V30 13 C 7.385732 4.145292 -21.405017 0
M  V30 14 C 6.227750 5.894219 -14.831691 0 CFG=2
M  V30 15 C 6.985913 6.722330 -12.349626 0 CFG=1
M  V30 16 O 7.380851 5.369282 -10.432554 0
M  V30 17 C 6.394248 5.648352 -23.191799 0
M  V30 18 C 6.940369 5.283461 -11.773263 0
M  V30 19 O 4.974507 7.363070 -18.638993 0
M  V30 20 C 7.509107 3.851611 -13.902498 0
M  V30 21 F 8.081035 2.633518 -19.752989 0
M  V30 22 N 5.631129 5.240737 -19.453254 0
M  V30 23 C 7.453332 4.963730 -14.960515 0 CFG=2
M  V30 24 C 7.890377 4.283793 -12.477972 0
M  V30 25 O 5.834906 5.769400 -17.268204 0
M  V30 26 F 7.556226 5.595997 -23.841851 0
M  V30 27 C 5.892609 6.636003 -16.149306 0
M  V30 28 H 6.413314 3.705374 -18.089990 0
M  V30 29 H 5.558139 3.156633 -19.491132 0
M  V30 30 H 9.097419 6.873427 -12.951588 0
M  V30 31 H 8.351588 8.419253 -12.578925 0
M  V30 32 H 8.806970 7.341040 -11.284834 0
M  V30 33 H 7.248772 6.294505 -21.333257 0
M  V30 34 H 5.093576 5.326998 -11.248405 0
M  V30 35 H 6.814834 7.830376 -14.165660 0
M  V30 36 H 5.297753 7.313695 -13.538479 0
M  V30 37 H 4.648658 4.687049 -21.216792 0
M  V30 38 H 8.360794 4.160724 -21.892973 0
M  V30 39 H 6.832659 3.321306 -21.858065 0
M  V30 40 H 5.373655 5.255892 -14.606871 0
M  V30 41 H 6.392074 7.329383 -11.662915 0
M  V30 42 H 7.196526 6.250563 -10.094745 0
M  V30 43 H 5.754031 4.867586 -23.603711 0
M  V30 44 H 8.234894 3.107621 -14.230017 0
M  V30 45 H 6.555873 3.322236 -13.879164 0
M  V30 46 H 7.399538 4.445711 -15.917178 0
M  V30 47 H 8.911523 4.664298 -12.476554 0
M  V30 48 H 7.937328 3.369414 -11.890358 0
M  V30 49 H 4.935986 7.148846 -16.039072 0
M  V30 50 H 6.634855 7.406863 -16.353408 0
M  V30 END ATOM
M  V30 BEGIN BOND
M  V30 1 1 8 4
M  V30 2 1 10 1
M  V30 3 1 11 10
M  V30 4 1 12 8
M  V30 5 1 13 4
M  V30 6 1 13 10
M  V30 7 1 14 6
M  V30 8 1 15 2
M  V30 9 1 15 6
M  V30 10 1 17 4
M  V30 11 1 17 9
M  V30 12 1 18 5
M  V30 13 1 18 15
M  V30 14 1 18 16
M  V30 15 2 19 7
M  V30 16 1 21 10
M  V30 17 1 22 1
M  V30 18 1 22 7
M  V30 19 1 22 8
M  V30 20 1 23 3
M  V30 21 1 23 14
M  V30 22 1 23 20
M  V30 23 1 24 18
M  V30 24 1 24 20
M  V30 25 1 25 7
M  V30 26 1 26 17
M  V30 27 1 27 14
M  V30 28 1 27 25
M  V30 29 1 28 1
M  V30 30 1 29 1
M  V30 31 1 30 2
M  V30 32 1 31 2
M  V30 33 1 32 2
M  V30 34 1 4 33 CFG=1
M  V30 35 1 34 5
M  V30 36 1 35 6
M  V30 37 1 36 6
M  V30 38 1 8 37 CFG=3
M  V30 39 1 38 13
M  V30 40 1 39 13
M  V30 41 1 14 40 CFG=1
M  V30 42 1 15 41 CFG=1
M  V30 43 1 42 16
M  V30 44 1 43 17
M  V30 45 1 44 20
M  V30 46 1 45 20
M  V30 47 1 23 46 CFG=3
M  V30 48 1 47 24
M  V30 49 1 48 24
M  V30 50 1 49 27
M  V30 51 1 50 27
M  V30 END BOND
M  V30 END CTAB
M  END
>  <i_epik_Tot_Q>  (1) 
0

>  <i_epik_Tot_abs_Q>  (1) 
0

>  <i_i_glide_confnum>  (1) 
319

>  <i_i_glide_lignum>  (1) 
149

>  <i_i_glide_posenum>  (1) 
211

>  <i_i_glide_rotatable_bonds>  (1) 
7

>  <i_lp_mmshare_version>  (1) 
72125

>  <i_m_source_file_index>  (1) 
75

>  <i_f3d_flags>  (1) 
0

>  <num_sample>  (1) 
100

>  <b_lp_Chiralities_Consistent>  (1) 
1

>  <r_epik_Charging_Adjusted_Penalty>  (1) 
0

>  <r_epik_Ionization_Penalty>  (1) 
3.1339630279600532e-07

>  <r_epik_Ionization_Penalty_Charging>  (1) 
0

>  <r_epik_Ionization_Penalty_Neutral>  (1) 
3.1339630279600532e-07

>  <r_epik_State_Penalty>  (1) 
-0

>  <r_glide_ring_energy>  (1) 
2.4879079319723991

>  <r_i_docking_score>  (1) 
-4.4172610034394779

>  <r_i_glide_ecoul>  (1) 
-3.680366156319681

>  <r_i_glide_eff_state_penalty>  (1) 
-0

>  <r_i_glide_einternal>  (1) 
2.5494960674187492

>  <r_i_glide_emodel>  (1) 
-37.273296273467018

>  <r_i_glide_emodel_strain>  (1) 
0.40755408792453096

>  <r_i_glide_energy>  (1) 
-30.388636062502208

>  <r_i_glide_erotb>  (1) 
0.47417469053287281

>  <r_i_glide_esite>  (1) 
-0.037881471793837454

>  <r_i_glide_evdw>  (1) 
-26.708269906182526

>  <r_i_glide_gscore>  (1) 
-4.4172610034394779

>  <r_i_glide_gscore_strain>  (1) 
0

>  <r_i_glide_hbond>  (1) 
-0.16

>  <r_i_glide_ligand_efficiency>  (1) 
-0.16360225938664733

>  <r_i_glide_ligand_efficiency_ln>  (1) 
-1.0282655373615452

>  <r_i_glide_ligand_efficiency_sa>  (1) 
-0.49080677815994211

>  <r_i_glide_lipo>  (1) 
-1.1337374571076952

>  <r_i_glide_metal>  (1) 
-0

>  <r_i_glide_rewards>  (1) 
-1.672348346313739

>  <r_lp_Energy>  (1) 
27.319579999999998

>  <r_lp_tautomer_probability>  (1) 
1

>  <s_epik_Chemistry_Notes>  (1) 
This compound has an ester and may undergo hydrolysis at high or low pH.

>  <s_epik_cmdline>  (1) 
J2VwaWtfcHl0aG9uJywgJy1waHQnLCAnMS4wJywgJy1waCcsICc3LjQnLCAnLXRuJywgJzgnLCAnLW1hJywgJzUwMCcsICctaW1hZScsICc8aW5maWxlLm1hZT4nLCAnLW9tYWUnLCAnPG91dGZpbGUubWFlPic=

>  <s_epik_input>  (1) 
RltDSF0oRilbQ0BIXShbQ0gyXTEpW0NAQEhdKEYpTihbQ0gyXUMxKEYpRilDKD1PKU9bQ0gyXVtDQEBIXShbQ0BASF0oRilbQ0gyXVtDSDJdMilbQ0gyXVtDQEhdKFtDSDNdKUMyKFtPSF0pW09IXQ==

>  <s_glide_docking_method>  (1) 
confgen

>  <s_i_glide_gridfile>  (1) 
gpcr_drd2_6luq_protein_autoprepared_prepared

>  <s_lp_Force_Field>  (1) 
S-OPLS

>  <s_lp_Variant>  (1) 
DiffSBDD_74_num_sample_100-2

>  <s_m_source_file>  (1) 
generated__ligand_DiffSBDD_2026-05-06_prepared.sdf

>  <GenAI_Model>  (1) 
DiffSBDD

>  <Protein>  (1) 
generic_title2

$$$$
DiffSBDD_0_num_sample_100
     RDKit          3D

  0  0  0  0  0  0  0  0  0  0999 V3000
M  V30 BEGIN CTAB
M  V30 COUNTS 105 110 0 0 1
M  V30 BEGIN ATOM
M  V30 1 C 5.482019 4.616600 -11.444123 0
M  V30 2 C 10.914719 0.189040 -19.505839 0
M  V30 3 O 11.969420 3.354993 -18.538165 0
M  V30 4 C 11.413509 4.334264 -19.385198 0 CFG=1
M  V30 5 S 7.479728 -3.059162 -18.291759 0
M  V30 6 C 7.006355 4.969811 -13.518127 0 CFG=1
M  V30 7 C 6.061810 6.400629 -16.321097 0
M  V30 8 C 8.806952 5.079094 -17.999073 0 CFG=2
M  V30 9 C 14.423740 1.947211 -20.010259 0
M  V30 10 C 6.635539 5.001216 -16.588455 0
M  V30 11 C 8.494964 4.841192 -14.026917 0 CFG=1
M  V30 12 C 6.582901 7.085601 -15.046939 0
M  V30 13 C 8.175946 -0.464282 -17.811462 0 CFG=1
M  V30 14 O 8.234686 -4.286097 -18.805082 0
M  V30 15 C 8.284361 1.637708 -17.945798 0 CFG=2
M  V30 16 N 15.147010 4.315343 -19.599667 0 CHG=1
M  V30 17 C 9.225730 5.288034 -11.609906 0
M  V30 18 O 6.683358 -2.328747 -19.614746 0
M  V30 19 O 6.101727 2.251321 -18.614183 0
M  V30 20 C 8.326925 0.502637 -19.007727 0 CFG=1
M  V30 21 C 8.935238 4.919406 -15.543677 0
M  V30 22 C 17.595059 4.941016 -19.588485 0
M  V30 23 O 6.990872 2.024350 -17.476515 0
M  V30 24 O 9.246675 2.681872 -18.021513 0
M  V30 25 S 10.634740 4.969294 -15.891694 0
M  V30 26 C 9.353746 5.728720 -13.076587 0
M  V30 27 C 11.981996 -0.169154 -20.578884 0
M  V30 28 C 9.311138 1.557869 -21.093117 0
M  V30 29 C 14.084100 0.669097 -19.232766 0
M  V30 30 C 13.420204 -0.439289 -20.058305 0
M  V30 31 C 10.220286 5.562294 -17.560556 0 CFG=1
M  V30 32 O 17.034495 4.969277 -16.860489 0
M  V30 33 C 16.169962 5.253053 -19.072106 0 CFG=2
M  V30 34 C 9.469573 0.414040 -20.049070 0 CFG=1
M  V30 35 C 15.219219 2.916169 -19.121592 0
M  V30 36 C 10.030233 3.919487 -19.951693 0 CFG=1
M  V30 37 C 16.053040 5.349280 -17.538994 0
M  V30 38 C 11.335137 5.622306 -18.595566 0
M  V30 39 N 7.820827 5.369109 -11.163340 0 CHG=1
M  V30 40 O 14.975539 5.788803 -17.084383 0 CHG=-1
M  V30 41 N 8.634791 -1.844880 -17.820386 0
M  V30 42 C 6.910972 4.566420 -12.012366 0 CFG=1
M  V30 43 C 10.219915 2.805134 -21.018278 0
M  V30 44 C 8.141611 4.976613 -16.623063 0
M  V30 45 C 6.293053 6.336981 -13.743978 0
M  V30 46 C 8.921844 3.776272 -18.862170 0 CFG=2
M  V30 47 C 8.841033 0.610017 -16.959666 0
M  V30 48 H 4.765842 4.166070 -12.130175 0
M  V30 49 H 5.152470 5.640499 -11.261723 0
M  V30 50 H 5.419150 4.082852 -10.494891 0
M  V30 51 H 11.225881 1.062274 -18.946585 0
M  V30 52 H 10.897717 -0.618959 -18.776939 0
M  V30 53 H 11.310387 3.126854 -17.893799 0
M  V30 54 H 12.111558 4.494164 -20.207976 0
M  V30 55 H 6.414234 4.181009 -13.962999 0
M  V30 56 H 4.973674 6.337249 -16.280872 0
M  V30 57 H 6.289544 7.042485 -17.172974 0
M  V30 58 H 8.327681 5.865545 -18.583631 0
M  V30 59 H 13.505579 2.408245 -20.368341 0
M  V30 60 H 15.006804 1.704955 -20.899951 0
M  V30 61 H 6.268309 4.268641 -15.891865 0
M  V30 62 H 6.276969 4.673339 -17.563576 0
M  V30 63 H 8.777234 3.813296 -13.794804 0
M  V30 64 H 7.648852 7.289156 -15.091683 0
M  V30 65 H 6.116678 8.069933 -14.993318 0
M  V30 66 H 7.126892 -0.511472 -17.509238 0
M  V30 67 H 14.250240 4.675115 -19.299609 0
M  V30 68 H 9.834695 5.925403 -10.968727 0
M  V30 69 H 9.594002 4.267902 -11.485265 0
M  V30 70 H 6.026477 -2.928340 -19.932513 0
M  V30 71 H 5.705743 1.397511 -18.707818 0
M  V30 72 H 7.390053 0.436318 -19.558689 0
M  V30 73 H 18.295624 5.716750 -19.276047 0
M  V30 74 H 17.619756 4.906543 -20.677929 0
M  V30 75 H 17.983324 3.992275 -19.218477 0
M  V30 76 H 10.410455 5.720398 -13.334116 0
M  V30 77 H 9.035427 6.768703 -13.127404 0
M  V30 78 H 11.642364 -1.059486 -21.107136 0
M  V30 79 H 12.040282 0.591620 -21.351230 0
M  V30 80 H 8.270667 1.875843 -21.160409 0
M  V30 81 H 9.512921 1.108452 -22.066578 0
M  V30 82 H 15.007380 0.263898 -18.816377 0
M  V30 83 H 13.460527 0.910755 -18.371801 0
M  V30 84 H 14.061129 -0.688584 -20.905152 0
M  V30 85 H 13.434970 -1.320682 -19.423585 0
M  V30 86 H 10.051009 6.569302 -17.304697 0
M  V30 87 H 15.902228 6.236858 -19.460346 0
M  V30 88 H 9.254729 -0.499750 -20.604992 0
M  V30 89 H 14.835983 2.887661 -18.100175 0
M  V30 90 H 16.250518 2.571692 -19.083429 0
M  V30 91 H 9.699136 4.781814 -20.533575 0
M  V30 92 H 12.289115 5.865342 -18.125238 0
M  V30 93 H 11.121418 6.439676 -19.286508 0
M  V30 94 H 7.759075 5.042909 -10.209086 0
M  V30 95 H 9.548206 -1.966430 -18.229897 0
M  V30 96 H 7.241568 3.529273 -11.933306 0
M  V30 97 H 11.256922 2.492869 -21.015746 0
M  V30 98 H 10.126338 3.297467 -21.987566 0
M  V30 99 H 5.214788 6.197645 -13.663442 0
M  V30 100 H 6.556213 7.016108 -12.932730 0
M  V30 101 H 7.978692 3.621740 -19.379831 0
M  V30 102 H 8.465979 0.693760 -15.938681 0
M  V30 103 H 9.926943 0.557515 -16.992091 0
M  V30 104 H 15.193262 4.325727 -20.606750 0
M  V30 105 H 7.519203 6.335673 -11.163697 0
M  V30 END ATOM
M  V30 BEGIN BOND
M  V30 1 1 4 3
M  V30 2 1 10 7
M  V30 3 1 11 6
M  V30 4 1 12 7
M  V30 5 2 14 5
M  V30 6 1 5 18 CFG=3
M  V30 7 1 20 13
M  V30 8 1 20 15
M  V30 9 1 21 11
M  V30 10 1 15 23 CFG=1
M  V30 11 1 23 19
M  V30 12 1 24 15
M  V30 13 1 25 21
M  V30 14 1 26 11
M  V30 15 1 26 17
M  V30 16 1 27 2
M  V30 17 1 29 9
M  V30 18 1 30 27
M  V30 19 1 30 29
M  V30 20 1 31 8
M  V30 21 1 31 25
M  V30 22 1 33 16
M  V30 23 1 33 22
M  V30 24 1 34 2
M  V30 25 1 34 20
M  V30 26 1 34 28
M  V30 27 1 35 9
M  V30 28 1 35 16
M  V30 29 1 36 4
M  V30 30 2 37 32
M  V30 31 1 37 33
M  V30 32 1 38 4
M  V30 33 1 38 31
M  V30 34 1 39 17
M  V30 35 1 40 37
M  V30 36 1 41 5
M  V30 37 1 41 13
M  V30 38 1 42 1
M  V30 39 1 42 6
M  V30 40 1 42 39
M  V30 41 1 43 28
M  V30 42 1 43 36
M  V30 43 1 44 8
M  V30 44 1 44 10
M  V30 45 2 44 21
M  V30 46 1 45 6
M  V30 47 1 45 12
M  V30 48 1 46 8
M  V30 49 1 46 24
M  V30 50 1 46 36
M  V30 51 1 47 13
M  V30 52 1 47 15
M  V30 53 1 48 1
M  V30 54 1 49 1
M  V30 55 1 50 1
M  V30 56 1 51 2
M  V30 57 1 52 2
M  V30 58 1 53 3
M  V30 59 1 4 54 CFG=3
M  V30 60 1 6 55 CFG=3
M  V30 61 1 56 7
M  V30 62 1 57 7
M  V30 63 1 8 58 CFG=3
M  V30 64 1 59 9
M  V30 65 1 60 9
M  V30 66 1 61 10
M  V30 67 1 62 10
M  V30 68 1 11 63 CFG=1
M  V30 69 1 64 12
M  V30 70 1 65 12
M  V30 71 1 13 66 CFG=1
M  V30 72 1 67 16
M  V30 73 1 68 17
M  V30 74 1 69 17
M  V30 75 1 70 18
M  V30 76 1 71 19
M  V30 77 1 20 72 CFG=3
M  V30 78 1 73 22
M  V30 79 1 74 22
M  V30 80 1 75 22
M  V30 81 1 76 26
M  V30 82 1 77 26
M  V30 83 1 78 27
M  V30 84 1 79 27
M  V30 85 1 80 28
M  V30 86 1 81 28
M  V30 87 1 82 29
M  V30 88 1 83 29
M  V30 89 1 84 30
M  V30 90 1 85 30
M  V30 91 1 31 86 CFG=1
M  V30 92 1 33 87 CFG=3
M  V30 93 1 34 88 CFG=3
M  V30 94 1 89 35
M  V30 95 1 90 35
M  V30 96 1 36 91 CFG=3
M  V30 97 1 92 38
M  V30 98 1 93 38
M  V30 99 1 94 39
M  V30 100 1 95 41
M  V30 101 1 42 96 CFG=3
M  V30 102 1 97 43
M  V30 103 1 98 43
M  V30 104 1 99 45
M  V30 105 1 100 45
M  V30 106 1 46 101 CFG=3
M  V30 107 1 102 47
M  V30 108 1 103 47
M  V30 109 1 104 16
M  V30 110 1 105 39
M  V30 END BOND
M  V30 END CTAB
M  END
>  <i_epik_Tot_Q>  (1) 
1

>  <i_epik_Tot_abs_Q>  (1) 
3

>  <i_i_glide_confnum>  (1) 
869

>  <i_i_glide_lignum>  (1) 
2

>  <i_i_glide_posenum>  (1) 
312

>  <i_i_glide_rotatable_bonds>  (1) 
15

>  <i_lp_mmshare_version>  (1) 
72125

>  <i_m_source_file_index>  (1) 
1

>  <i_f3d_flags>  (1) 
0

>  <num_sample>  (1) 
100

>  <b_lp_Chiralities_Consistent>  (1) 
1

>  <r_epik_Charging_Adjusted_Penalty>  (1) 
0.0032360822409407838

>  <r_epik_Ionization_Penalty>  (1) 
0.0033274947784888795

>  <r_epik_Ionization_Penalty_Charging>  (1) 
0.0032360822409407838

>  <r_epik_Ionization_Penalty_Neutral>  (1) 
9.1412537548095675e-05

>  <r_epik_State_Penalty>  (1) 
-0

>  <r_glide_ring_energy>  (1) 
0

>  <r_i_docking_score>  (1) 
-4.4148575741215126

>  <r_i_glide_ecoul>  (1) 
-6.0245035663582733

>  <r_i_glide_eff_state_penalty>  (1) 
-0

>  <r_i_glide_einternal>  (1) 
5.3738971644610132

>  <r_i_glide_emodel>  (1) 
-40.895535739922096

>  <r_i_glide_emodel_strain>  (1) 
0.14780151705176081

>  <r_i_glide_energy>  (1) 
-32.338068285103191

>  <r_i_glide_erotb>  (1) 
0.30458455882301022

>  <r_i_glide_esite>  (1) 
-0.10279344152603272

>  <r_i_glide_evdw>  (1) 
-26.313564718744914

>  <r_i_glide_gscore>  (1) 
-4.4148575741215126

>  <r_i_glide_gscore_strain>  (1) 
0

>  <r_i_glide_hbond>  (1) 
-0.17738571039741483

>  <r_i_glide_ligand_efficiency>  (1) 
-0.093933139874925797

>  <r_i_glide_ligand_efficiency_ln>  (1) 
-0.91025221017292923

>  <r_i_glide_ligand_efficiency_sa>  (1) 
-0.33898836496994827

>  <r_i_glide_lipo>  (1) 
-1.7656023583210108

>  <r_i_glide_metal>  (1) 
-0

>  <r_i_glide_rewards>  (1) 
-0.45430685180907843

>  <r_lp_Energy>  (1) 
59.080839999999995

>  <r_lp_tautomer_probability>  (1) 
1

>  <s_epik_cmdline>  (1) 
J2VwaWtfcHl0aG9uJywgJy1waHQnLCAnMS4wJywgJy1waCcsICc3LjQnLCAnLXRuJywgJzgnLCAnLW1hJywgJzUwMCcsICctaW1hZScsICc8aW5maWxlLm1hZT4nLCAnLW9tYWUnLCAnPG91dGZpbGUubWFlPic=

>  <s_epik_input>  (1) 
W0NIM11bQ0BASF0xW05IXVtDSDJdW0NIMl1bQ0BIXTJbQ0BASF0xW0NIMl1bQ0gyXVtDSDJdW0NIMl1DMz1DMlNbQ0BASF0oW0NIMl1bQ0BIXTRbT0hdKVtDQEhdM1tDQEhdKE81KVtDQEBIXTRbQ0gyXVtDSDJdW0NASF0oW0NASF0oW0NAXTU2T1tPSF0pW0NASF0oW0NIMl02KVtOSF1bU0BdKD1PKVtPSF0pW0NIMl1bQ0gyXVtDSDJdW0NIMl1bQ0gyXVtDSDJdW05IXVtDQEhdKFtDSDNdKUMoPU8pW09IXQ==

>  <s_glide_docking_method>  (1) 
confgen

>  <s_i_glide_gridfile>  (1) 
gpcr_drd2_6luq_protein_autoprepared_prepared

>  <s_lp_Force_Field>  (1) 
S-OPLS

>  <s_lp_Variant>  (1) 
DiffSBDD_0_num_sample_100-2

>  <s_m_source_file>  (1) 
generated__ligand_DiffSBDD_2026-05-06_prepared.sdf

>  <GenAI_Model>  (1) 
DiffSBDD

>  <Protein>  (1) 
generic_title2

$$$$
DiffSBDD_5_num_sample_100
     RDKit          3D

  0  0  0  0  0  0  0  0  0  0999 V3000
M  V30 BEGIN CTAB
M  V30 COUNTS 68 72 0 0 1
M  V30 BEGIN ATOM
M  V30 1 N 11.514327 8.347303 -7.488128 0
M  V30 2 C 11.819952 9.454012 -6.562410 0
M  V30 3 C 6.345727 6.755156 -17.869776 0
M  V30 4 C 11.405499 6.889842 -4.501979 0
M  V30 5 C 8.667445 5.687220 -17.851180 0 CFG=2
M  V30 6 C 10.600088 7.213182 -10.683941 0
M  V30 7 C 8.258872 6.370288 -11.191751 0
M  V30 8 C 6.876481 3.730515 -13.988340 0
M  V30 9 C 11.305110 9.371204 -5.120369 0
M  V30 10 O 8.541074 5.619620 -8.024087 0
M  V30 11 C 9.573860 5.783958 -8.974125 0 CFG=2
M  V30 12 C 9.742393 5.499466 -16.757583 0
M  V30 13 C 7.176998 5.515742 -17.428325 0 CFG=2
M  V30 14 N 7.255821 5.370243 -10.773141 0
M  V30 15 C 10.840252 7.152127 -7.023017 0 CFG=1
M  V30 16 C 6.829217 6.355288 -15.012368 0
M  V30 17 O 7.569602 4.506163 -19.511822 0
M  V30 18 C 6.729699 4.364816 -18.382502 0 CFG=2
M  V30 19 C 10.876616 6.297132 -8.348582 0 CFG=2
M  V30 20 C 6.688264 6.135814 -13.631745 0
M  V30 21 C 7.034887 3.946966 -15.373335 0
M  V30 22 C 6.723886 4.821768 -13.108954 0
M  V30 23 C 9.271152 6.786942 -10.092201 0 CFG=1
M  V30 24 C 8.870132 4.696264 -18.999574 0
M  V30 25 C 6.559419 4.569058 -11.619515 0
M  V30 26 C 7.008334 5.263288 -15.897909 0
M  V30 27 C 11.793489 8.395351 -8.777123 0
M  V30 28 F 5.437090 4.410783 -18.708491 0
M  V30 29 C 11.947478 8.299736 -4.232223 0
M  V30 30 O 5.834897 3.662230 -11.222311 0
M  V30 31 O 12.234878 9.369327 -9.354215 0
M  V30 32 C 11.549377 7.122157 -9.498712 0 CFG=2
M  V30 33 C 11.570066 6.364483 -5.927115 0
M  V30 34 H 12.905193 9.567198 -6.533997 0
M  V30 35 H 11.442160 10.377887 -6.986018 0
M  V30 36 H 6.428308 6.926128 -18.944598 0
M  V30 37 H 5.288867 6.623216 -17.643554 0
M  V30 38 H 6.634491 7.680230 -17.386591 0
M  V30 39 H 11.864034 6.188721 -3.803615 0
M  V30 40 H 10.340193 6.860550 -4.291801 0
M  V30 41 H 8.796251 6.677632 -18.291695 0
M  V30 42 H 10.923152 6.557163 -11.491656 0
M  V30 43 H 10.541504 8.215795 -11.107082 0
M  V30 44 H 7.790015 7.303868 -11.491744 0
M  V30 45 H 8.817967 5.980194 -12.042771 0
M  V30 46 H 6.890200 2.723893 -13.598146 0
M  V30 47 H 11.480303 10.340896 -4.655851 0
M  V30 48 H 10.234894 9.251580 -5.133608 0
M  V30 49 H 8.019056 6.417560 -7.979893 0
M  V30 50 H 9.771150 4.809643 -9.424291 0
M  V30 51 H 9.750593 4.481788 -16.367979 0
M  V30 52 H 10.738844 5.707512 -17.151905 0
M  V30 53 H 9.585713 6.168361 -15.914054 0
M  V30 54 H 7.139730 5.228255 -9.777911 0
M  V30 55 H 9.821596 7.402198 -6.724742 0
M  V30 56 H 6.799634 7.362960 -15.387505 0
M  V30 57 H 6.913592 3.363030 -18.006021 0
M  V30 58 H 11.434839 5.413386 -8.082621 0
M  V30 59 H 6.530067 6.975311 -12.979775 0
M  V30 60 H 7.170997 3.101908 -16.025157 0
M  V30 61 H 9.034795 7.721321 -9.594211 0
M  V30 62 H 9.547430 5.073681 -19.766215 0
M  V30 63 H 9.259088 3.742981 -18.638415 0
M  V30 64 H 13.033841 8.341990 -4.291688 0
M  V30 65 H 11.727539 8.540740 -3.191282 0
M  V30 66 H 12.527649 6.815252 -9.864684 0
M  V30 67 H 12.595589 6.168292 -6.216170 0
M  V30 68 H 11.131897 5.376502 -5.921545 0
M  V30 END ATOM
M  V30 BEGIN BOND
M  V30 1 1 2 1
M  V30 2 1 9 2
M  V30 3 1 11 10
M  V30 4 1 12 5
M  V30 5 1 13 3 CFG=3
M  V30 6 1 13 5
M  V30 7 1 14 7
M  V30 8 1 15 1
M  V30 9 1 18 13
M  V30 10 1 18 17
M  V30 11 1 19 11
M  V30 12 1 19 15
M  V30 13 1 20 16
M  V30 14 2 21 8
M  V30 15 1 22 8
M  V30 16 2 22 20
M  V30 17 1 23 6
M  V30 18 1 23 7
M  V30 19 1 23 11
M  V30 20 1 24 5
M  V30 21 1 24 17
M  V30 22 1 25 14
M  V30 23 1 25 22
M  V30 24 1 26 13
M  V30 25 2 26 16
M  V30 26 1 26 21
M  V30 27 1 27 1
M  V30 28 1 28 18
M  V30 29 1 29 4
M  V30 30 1 29 9
M  V30 31 2 30 25
M  V30 32 2 31 27
M  V30 33 1 32 6
M  V30 34 1 32 19
M  V30 35 1 32 27
M  V30 36 1 33 4
M  V30 37 1 33 15
M  V30 38 1 34 2
M  V30 39 1 35 2
M  V30 40 1 36 3
M  V30 41 1 37 3
M  V30 42 1 38 3
M  V30 43 1 39 4
M  V30 44 1 40 4
M  V30 45 1 5 41 CFG=3
M  V30 46 1 42 6
M  V30 47 1 43 6
M  V30 48 1 44 7
M  V30 49 1 45 7
M  V30 50 1 46 8
M  V30 51 1 47 9
M  V30 52 1 48 9
M  V30 53 1 49 10
M  V30 54 1 11 50 CFG=3
M  V30 55 1 51 12
M  V30 56 1 52 12
M  V30 57 1 53 12
M  V30 58 1 54 14
M  V30 59 1 15 55 CFG=1
M  V30 60 1 56 16
M  V30 61 1 18 57 CFG=1
M  V30 62 1 19 58 CFG=1
M  V30 63 1 59 20
M  V30 64 1 60 21
M  V30 65 1 23 61 CFG=1
M  V30 66 1 62 24
M  V30 67 1 63 24
M  V30 68 1 64 29
M  V30 69 1 65 29
M  V30 70 1 32 66 CFG=3
M  V30 71 1 67 33
M  V30 72 1 68 33
M  V30 END BOND
M  V30 END CTAB
M  END
>  <i_epik_Tot_Q>  (1) 
0

>  <i_epik_Tot_abs_Q>  (1) 
0

>  <i_i_glide_confnum>  (1) 
26

>  <i_i_glide_lignum>  (1) 
8

>  <i_i_glide_posenum>  (1) 
306

>  <i_i_glide_rotatable_bonds>  (1) 
6

>  <i_lp_mmshare_version>  (1) 
72125

>  <i_m_source_file_index>  (1) 
6

>  <i_f3d_flags>  (1) 
0

>  <num_sample>  (1) 
100

>  <b_lp_Chiralities_Consistent>  (1) 
1

>  <r_epik_Charging_Adjusted_Penalty>  (1) 
0

>  <r_epik_Ionization_Penalty>  (1) 
1.9291304558021744e-07

>  <r_epik_Ionization_Penalty_Charging>  (1) 
0

>  <r_epik_Ionization_Penalty_Neutral>  (1) 
1.9291304558021744e-07

>  <r_epik_State_Penalty>  (1) 
-0

>  <r_glide_ring_energy>  (1) 
0.80861422864903076

>  <r_i_docking_score>  (1) 
-4.4074297426609723

>  <r_i_glide_ecoul>  (1) 
-2.6969349467124921

>  <r_i_glide_eff_state_penalty>  (1) 
-0

>  <r_i_glide_einternal>  (1) 
9.6975225782610899

>  <r_i_glide_emodel>  (1) 
-22.549808078626718

>  <r_i_glide_emodel_strain>  (1) 
3.4184775164970347

>  <r_i_glide_energy>  (1) 
-23.618485469269508

>  <r_i_glide_erotb>  (1) 
0.47823198043206561

>  <r_i_glide_esite>  (1) 
-0.10643550835191702

>  <r_i_glide_evdw>  (1) 
-20.921550522557016

>  <r_i_glide_gscore>  (1) 
-4.4074297426609723

>  <r_i_glide_gscore_strain>  (1) 
0

>  <r_i_glide_hbond>  (1) 
-0.19067334856601381

>  <r_i_glide_ligand_efficiency>  (1) 
-0.1335584770503325

>  <r_i_glide_ligand_efficiency_ln>  (1) 
-0.98018955431791699

>  <r_i_glide_ligand_efficiency_sa>  (1) 
-0.42839340020090122

>  <r_i_glide_lipo>  (1) 
-2.6658178821178264

>  <r_i_glide_metal>  (1) 
-0

>  <r_i_glide_rewards>  (1) 
-0.47211721592255684

>  <r_lp_Energy>  (1) 
32.426643999999996

>  <r_lp_tautomer_probability>  (1) 
1

>  <s_epik_cmdline>  (1) 
J2VwaWtfcHl0aG9uJywgJy1waHQnLCAnMS4wJywgJy1waCcsICc3LjQnLCAnLXRuJywgJzgnLCAnLW1hJywgJzUwMCcsICctaW1hZScsICc8aW5maWxlLm1hZT4nLCAnLW9tYWUnLCAnPG91dGZpbGUubWFlPic=

>  <s_epik_input>  (1) 
W0NIMl0xW0NIMl1bQ0gyXVtDSDJdW0NIMl1bQ0BASF0oTjEyKVtDQEBIXTNbQ0BIXShDMj1PKVtDSDJdW0NASF0oW0NAQEhdM1tPSF0pW0NIMl1bTkhdQyg9TyljNFtjSF1bY0hdYyhbY0hdW2NIXTQpW0NAQF01KFtDSDNdKVtDQEBIXShbQ0gzXSlbQ0gyXU9bQ0BASF01Rg==

>  <s_glide_docking_method>  (1) 
confgen

>  <s_i_glide_gridfile>  (1) 
gpcr_drd2_6luq_protein_autoprepared_prepared

>  <s_lp_Force_Field>  (1) 
S-OPLS

>  <s_lp_Variant>  (1) 
DiffSBDD_5_num_sample_100-1

>  <s_m_source_file>  (1) 
generated__ligand_DiffSBDD_2026-05-06_prepared.sdf

>  <GenAI_Model>  (1) 
DiffSBDD

>  <Protein>  (1) 
generic_title2

$$$$
DiffSBDD_44_num_sample_100
     RDKit          3D

  0  0  0  0  0  0  0  0  0  0999 V3000
M  V30 BEGIN CTAB
M  V30 COUNTS 56 58 0 0 1
M  V30 BEGIN ATOM
M  V30 1 C 8.213342 6.475895 -19.201390 0
M  V30 2 C 7.292632 5.270723 -18.896682 0 CFG=1
M  V30 3 C 11.270849 7.978550 -9.757142 0
M  V30 4 C 11.034834 7.632026 -6.966973 0
M  V30 5 C 10.197531 6.905656 -7.833171 0
M  V30 6 C 7.044373 6.513479 -14.125819 0
M  V30 7 C 5.834837 5.592386 -19.215057 0
M  V30 8 N 7.508095 4.102011 -19.806736 0 CFG=1 CHG=1
M  V30 9 C 7.004837 6.136251 -12.630872 0
M  V30 10 C 9.265529 6.488069 -11.430828 0
M  V30 11 O 9.816797 7.356552 -12.100537 0
M  V30 12 C 11.985131 8.525312 -7.491669 0
M  V30 13 N 10.924766 7.462678 -5.588346 0
M  V30 14 C 5.214989 4.773087 -20.316777 0
M  V30 15 N 9.424824 6.297772 -10.109920 0
M  V30 16 C 7.199810 5.289089 -15.048328 0
M  V30 17 O 7.818860 3.625858 -17.209820 0
M  V30 18 C 8.057181 4.569302 -10.848612 0
M  V30 19 C 6.451943 4.048419 -20.855490 0
M  V30 20 N 7.118451 5.644017 -16.460313 0
M  V30 21 C 8.881791 3.887007 -20.323753 0
M  V30 22 C 8.303846 5.502631 -12.067635 0 CFG=1
M  V30 23 C 8.598248 5.248062 -9.562026 0
M  V30 24 C 10.302491 7.074519 -9.237867 0
M  V30 25 C 7.434839 4.774659 -17.437749 0
M  V30 26 C 12.104540 8.692080 -8.881555 0
M  V30 27 O 5.207063 6.467520 -18.619459 0
M  V30 28 H 7.876758 7.369301 -18.680356 0
M  V30 29 H 9.242939 6.292851 -18.891021 0
M  V30 30 H 8.221562 6.720253 -20.264136 0
M  V30 31 H 11.393253 8.120724 -10.809034 0
M  V30 32 H 9.471421 6.222659 -7.420125 0
M  V30 33 H 6.112418 7.024109 -14.372566 0
M  V30 34 H 7.834831 7.238303 -14.307850 0
M  V30 35 H 6.172075 5.447685 -12.484949 0
M  V30 36 H 6.745688 7.019902 -12.043984 0
M  V30 37 H 12.630057 9.080243 -6.826682 0
M  V30 38 H 11.412979 8.075551 -4.952787 0
M  V30 39 H 10.154979 6.935647 -5.197848 0
M  V30 40 H 4.492408 4.077465 -19.891667 0
M  V30 41 H 4.726998 5.394298 -21.068133 0
M  V30 42 H 8.157012 4.799054 -14.869440 0
M  V30 43 H 6.422128 4.556033 -14.827406 0
M  V30 44 H 7.015206 4.270408 -10.731012 0
M  V30 45 H 8.634871 3.662320 -11.028384 0
M  V30 46 H 6.230117 3.015371 -21.126852 0
M  V30 47 H 6.800646 4.556156 -21.756684 0
M  V30 48 H 6.800987 6.572817 -16.701729 0
M  V30 49 H 9.173704 4.657322 -21.038218 0
M  V30 50 H 9.606360 3.878355 -19.508507 0
M  V30 51 H 8.945077 2.922968 -20.829636 0
M  V30 52 H 8.840423 4.940779 -12.829489 0
M  V30 53 H 9.167955 4.554635 -8.943912 0
M  V30 54 H 7.788417 5.679826 -8.972175 0
M  V30 55 H 12.841406 9.369299 -9.279714 0
M  V30 56 H 7.328494 3.316872 -19.191231 0
M  V30 END ATOM
M  V30 BEGIN BOND
M  V30 1 1 2 1 CFG=3
M  V30 2 2 5 4
M  V30 3 1 7 2
M  V30 4 1 8 2
M  V30 5 1 9 6
M  V30 6 2 11 10
M  V30 7 1 12 4
M  V30 8 1 13 4
M  V30 9 1 14 7
M  V30 10 1 15 10
M  V30 11 1 16 6
M  V30 12 1 19 8
M  V30 13 1 19 14
M  V30 14 1 20 16
M  V30 15 1 21 8
M  V30 16 1 22 9
M  V30 17 1 22 10
M  V30 18 1 22 18
M  V30 19 1 23 15
M  V30 20 1 23 18
M  V30 21 2 24 3
M  V30 22 1 24 5
M  V30 23 1 24 15
M  V30 24 1 25 2
M  V30 25 2 25 17
M  V30 26 1 25 20
M  V30 27 1 26 3
M  V30 28 2 26 12
M  V30 29 2 27 7
M  V30 30 1 28 1
M  V30 31 1 29 1
M  V30 32 1 30 1
M  V30 33 1 31 3
M  V30 34 1 32 5
M  V30 35 1 33 6
M  V30 36 1 34 6
M  V30 37 1 35 9
M  V30 38 1 36 9
M  V30 39 1 37 12
M  V30 40 1 38 13
M  V30 41 1 39 13
M  V30 42 1 40 14
M  V30 43 1 41 14
M  V30 44 1 42 16
M  V30 45 1 43 16
M  V30 46 1 44 18
M  V30 47 1 45 18
M  V30 48 1 46 19
M  V30 49 1 47 19
M  V30 50 1 48 20
M  V30 51 1 49 21
M  V30 52 1 50 21
M  V30 53 1 51 21
M  V30 54 1 22 52 CFG=3
M  V30 55 1 53 23
M  V30 56 1 54 23
M  V30 57 1 55 26
M  V30 58 1 8 56 CFG=1
M  V30 END BOND
M  V30 END CTAB
M  END
>  <i_epik_Tot_Q>  (1) 
1

>  <i_epik_Tot_abs_Q>  (1) 
1

>  <i_i_glide_confnum>  (1) 
153

>  <i_i_glide_lignum>  (1) 
79

>  <i_i_glide_posenum>  (1) 
264

>  <i_i_glide_rotatable_bonds>  (1) 
7

>  <i_lp_mmshare_version>  (1) 
72125

>  <i_m_source_file_index>  (1) 
45

>  <i_f3d_flags>  (1) 
0

>  <num_sample>  (1) 
100

>  <b_lp_Chiralities_Consistent>  (1) 
1

>  <r_epik_Charging_Adjusted_Penalty>  (1) 
0.87787264938008924

>  <r_epik_Ionization_Penalty>  (1) 
0.44040452980928141

>  <r_epik_Ionization_Penalty_Charging>  (1) 
0.43893632469004462

>  <r_epik_Ionization_Penalty_Neutral>  (1) 
0.0014682051192367804

>  <r_epik_State_Penalty>  (1) 
0.43893632469004457

>  <r_glide_ring_energy>  (1) 
0

>  <r_i_docking_score>  (1) 
-4.4014028708714905

>  <r_i_glide_ecoul>  (1) 
-2.3389430148362607

>  <r_i_glide_eff_state_penalty>  (1) 
0.43893632469004457

>  <r_i_glide_einternal>  (1) 
6.5584466652821689

>  <r_i_glide_emodel>  (1) 
-43.648234828591526

>  <r_i_glide_emodel_strain>  (1) 
0.36105844981995006

>  <r_i_glide_energy>  (1) 
-37.001556195771279

>  <r_i_glide_erotb>  (1) 
0.96983297192060391

>  <r_i_glide_esite>  (1) 
-0.12305518814222116

>  <r_i_glide_evdw>  (1) 
-34.662613180935018

>  <r_i_glide_gscore>  (1) 
-4.8403391955615351

>  <r_i_glide_gscore_strain>  (1) 
0

>  <r_i_glide_hbond>  (1) 
0

>  <r_i_glide_ligand_efficiency>  (1) 
-0.16301492114338853

>  <r_i_glide_ligand_efficiency_ln>  (1) 
-1.0245740255414659

>  <r_i_glide_ligand_efficiency_sa>  (1) 
-0.48904476343016573

>  <r_i_glide_lipo>  (1) 
-1.6005977095340644

>  <r_i_glide_metal>  (1) 
-0

>  <r_i_glide_rewards>  (1) 
-2.0025471585336629

>  <r_lp_Energy>  (1) 
25.411044

>  <r_lp_tautomer_probability>  (1) 
0.99995000000000001

>  <s_epik_cmdline>  (1) 
J2VwaWtfcHl0aG9uJywgJy1waHQnLCAnMS4wJywgJy1waCcsICc3LjQnLCAnLXRuJywgJzgnLCAnLW1hJywgJzUwMCcsICctaW1hZScsICc8aW5maWxlLm1hZT4nLCAnLW9tYWUnLCAnPG91dGZpbGUubWFlPic=

>  <s_epik_input>  (1) 
W0NIM11OMVtDSDJdW0NIMl1DKD1PKVtDQEBdMShbQ0gzXSlDKD1PKVtOSF1bQ0gyXVtDSDJdW0NIMl1bQ0BASF0yW0NIMl1bQ0gyXU4oQzI9TyljKFtjSF1bY0hdW2NIXTMpW2NIXWMzW05IMl0=

>  <s_glide_docking_method>  (1) 
confgen

>  <s_i_glide_gridfile>  (1) 
gpcr_drd2_6luq_protein_autoprepared_prepared

>  <s_lp_Force_Field>  (1) 
S-OPLS

>  <s_lp_Variant>  (1) 
DiffSBDD_44_num_sample_100-4

>  <s_m_source_file>  (1) 
generated__ligand_DiffSBDD_2026-05-06_prepared.sdf

>  <GenAI_Model>  (1) 
DiffSBDD

>  <Protein>  (1) 
generic_title2

$$$$
DiffSBDD_28_num_sample_100
     RDKit          3D

  0  0  0  0  0  0  0  0  0  0999 V3000
M  V30 BEGIN CTAB
M  V30 COUNTS 42 43 0 0 1
M  V30 BEGIN ATOM
M  V30 1 C 12.192722 6.756389 -2.514668 0
M  V30 2 C 8.898070 4.232847 -11.330943 0
M  V30 3 C 11.434841 6.694331 -3.854881 0
M  V30 4 N 10.609610 6.747131 -6.642212 0
M  V30 5 C 12.355866 9.269812 -2.686549 0
M  V30 6 C 10.433785 6.659032 -7.918013 0
M  V30 7 C 11.986131 9.118980 -4.143111 0
M  V30 8 O 10.802801 7.534029 -10.118302 0
M  V30 9 C 8.505429 5.769301 -9.376759 0
M  V30 10 C 6.622834 4.998180 -10.730876 0
M  V30 11 C 9.745913 5.439043 -8.531716 0
M  V30 12 C 9.192121 5.294374 -12.406189 0
M  V30 13 C 11.599982 8.884153 -7.059678 0
M  V30 14 N 11.434843 8.919547 -8.391818 0 CHG=-1
M  V30 15 N 7.984655 4.681963 -10.240228 0 CFG=1 CHG=1
M  V30 16 C 11.973540 8.090924 -1.802021 0
M  V30 17 C 10.915234 7.770650 -8.917050 0
M  V30 18 C 11.257217 7.893880 -6.144177 0
M  V30 19 C 11.558571 7.963171 -4.704496 0
M  V30 20 H 11.887554 5.926041 -1.876833 0
M  V30 21 H 13.259787 6.626753 -2.691666 0
M  V30 22 H 9.834687 3.871012 -10.910230 0
M  V30 23 H 8.451631 3.369302 -11.823631 0
M  V30 24 H 10.382363 6.466515 -3.700894 0
M  V30 25 H 11.827172 5.852038 -4.425871 0
M  V30 26 H 13.436544 9.369301 -2.666622 0
M  V30 27 H 11.926690 10.188731 -2.290193 0
M  V30 28 H 12.087068 10.006684 -4.738440 0
M  V30 29 H 7.746564 6.014152 -8.643353 0
M  V30 30 H 8.634839 6.642933 -10.005990 0
M  V30 31 H 6.621270 5.879732 -11.372392 0
M  V30 32 H 6.197680 4.161601 -11.285880 0
M  V30 33 H 5.960099 5.218892 -9.897757 0
M  V30 34 H 10.477729 4.898104 -9.091666 0
M  V30 35 H 9.434841 4.767631 -7.733028 0
M  V30 36 H 9.834839 4.875623 -13.179982 0
M  V30 37 H 8.287200 5.641823 -12.903024 0
M  V30 38 H 9.707600 6.162008 -11.999446 0
M  V30 39 H 12.132139 9.764117 -6.657041 0
M  V30 40 H 10.936256 8.168948 -1.491668 0
M  V30 41 H 12.578464 8.169301 -0.899764 0
M  V30 42 H 7.868299 3.888004 -9.627619 0
M  V30 END ATOM
M  V30 BEGIN BOND
M  V30 1 1 3 1
M  V30 2 2 6 4
M  V30 3 1 7 5
M  V30 4 1 11 6
M  V30 5 1 11 9
M  V30 6 1 12 2
M  V30 7 1 14 13
M  V30 8 1 15 2
M  V30 9 1 15 9
M  V30 10 1 15 10
M  V30 11 1 16 1
M  V30 12 1 16 5
M  V30 13 1 17 6
M  V30 14 2 17 8
M  V30 15 1 17 14
M  V30 16 1 18 4
M  V30 17 2 18 13
M  V30 18 1 19 3
M  V30 19 2 19 7
M  V30 20 1 19 18
M  V30 21 1 20 1
M  V30 22 1 21 1
M  V30 23 1 22 2
M  V30 24 1 23 2
M  V30 25 1 24 3
M  V30 26 1 25 3
M  V30 27 1 26 5
M  V30 28 1 27 5
M  V30 29 1 28 7
M  V30 30 1 29 9
M  V30 31 1 30 9
M  V30 32 1 31 10
M  V30 33 1 32 10
M  V30 34 1 33 10
M  V30 35 1 34 11
M  V30 36 1 35 11
M  V30 37 1 36 12
M  V30 38 1 37 12
M  V30 39 1 38 12
M  V30 40 1 39 13
M  V30 41 1 40 16
M  V30 42 1 41 16
M  V30 43 1 15 42 CFG=1
M  V30 END BOND
M  V30 END CTAB
M  END
>  <i_epik_Tot_Q>  (1) 
0

>  <i_epik_Tot_abs_Q>  (1) 
2

>  <i_i_glide_confnum>  (1) 
8

>  <i_i_glide_lignum>  (1) 
49

>  <i_i_glide_posenum>  (1) 
275

>  <i_i_glide_rotatable_bonds>  (1) 
5

>  <i_lp_mmshare_version>  (1) 
72125

>  <i_m_source_file_index>  (1) 
29

>  <i_f3d_flags>  (1) 
0

>  <num_sample>  (1) 
100

>  <b_lp_Chiralities_Consistent>  (1) 
1

>  <r_epik_Charging_Adjusted_Penalty>  (1) 
1.2889852773217638

>  <r_epik_Ionization_Penalty>  (1) 
1.2889869126975093

>  <r_epik_Ionization_Penalty_Charging>  (1) 
0.026956894772998535

>  <r_epik_Ionization_Penalty_Neutral>  (1) 
1.2620300179245107

>  <r_epik_State_Penalty>  (1) 
1.2620283825487653

>  <r_glide_ring_energy>  (1) 
0

>  <r_i_docking_score>  (1) 
-4.3923753039788993

>  <r_i_glide_ecoul>  (1) 
-4.0787849639192384

>  <r_i_glide_eff_state_penalty>  (1) 
1.2620283825487653

>  <r_i_glide_einternal>  (1) 
8.6808173786557496

>  <r_i_glide_emodel>  (1) 
-38.224965074336531

>  <r_i_glide_emodel_strain>  (1) 
0.58007683816936151

>  <r_i_glide_energy>  (1) 
-30.957588106146609

>  <r_i_glide_erotb>  (1) 
1.0375715866235848

>  <r_i_glide_esite>  (1) 
-0.044177796813198209

>  <r_i_glide_evdw>  (1) 
-26.878803142227373

>  <r_i_glide_gscore>  (1) 
-5.6544036865276643

>  <r_i_glide_gscore_strain>  (1) 
0

>  <r_i_glide_hbond>  (1) 
0

>  <r_i_glide_ligand_efficiency>  (1) 
-0.23117764757783679

>  <r_i_glide_ligand_efficiency_ln>  (1) 
-1.1135614791300736

>  <r_i_glide_ligand_efficiency_sa>  (1) 
-0.61687481594436055

>  <r_i_glide_lipo>  (1) 
-2.3957047425639346

>  <r_i_glide_metal>  (1) 
-0

>  <r_i_glide_rewards>  (1) 
-2.2963348320748618

>  <r_lp_Energy>  (1) 
33.608792999999999

>  <s_epik_cmdline>  (1) 
J2VwaWtfcHl0aG9uJywgJy1waHQnLCAnMS4wJywgJy1waCcsICc3LjQnLCAnLXRuJywgJzgnLCAnLW1hJywgJzUwMCcsICctaW1hZScsICc8aW5maWxlLm1hZT4nLCAnLW9tYWUnLCAnPG91dGZpbGUubWFlPic=

>  <s_epik_input>  (1) 
W0NIMl0xW0NIMl1bQ0gyXVtDSDJdW0NIXT1DMWMoW2NIXVtuSF1jMj1PKW5jMltDSDJdW0NIMl1OKFtDSDNdKVtDSDJdW0NIM10=

>  <s_glide_docking_method>  (1) 
confgen

>  <s_i_glide_gridfile>  (1) 
gpcr_drd2_6luq_protein_autoprepared_prepared

>  <s_lp_Force_Field>  (1) 
S-OPLS

>  <s_lp_Variant>  (1) 
DiffSBDD_28_num_sample_100-3

>  <s_m_source_file>  (1) 
generated__ligand_DiffSBDD_2026-05-06_prepared.sdf

>  <GenAI_Model>  (1) 
DiffSBDD

>  <Protein>  (1) 
generic_title2

$$$$
DiffSBDD_85_num_sample_100
     RDKit          3D

  0  0  0  0  0  0  0  0  0  0999 V3000
M  V30 BEGIN CTAB
M  V30 COUNTS 86 88 0 0 1
M  V30 BEGIN ATOM
M  V30 1 O 12.234882 9.750240 -3.272088 0
M  V30 2 C 10.442847 6.614641 -5.170723 0
M  V30 3 C 8.861473 3.926713 -16.348237 0
M  V30 4 C 6.737603 2.152517 -18.816939 0
M  V30 5 C 8.984249 8.319556 -6.464216 0
M  V30 6 C 8.732251 6.234257 -11.972849 0 CFG=1
M  V30 7 C 8.393312 4.119322 -18.863834 0 CFG=2
M  V30 8 C 7.007884 4.491889 -19.839857 0
M  V30 9 C 8.056353 4.835259 -11.906354 0 CFG=2
M  V30 10 C 7.585168 3.396327 -15.638103 0 CFG=2
M  V30 11 C 10.026649 7.792981 -10.462372 0 CFG=2
M  V30 12 C 10.834315 6.938785 -8.206102 0
M  V30 13 C 7.272582 4.188879 -14.344814 0
M  V30 14 C 7.584148 1.864947 -15.409454 0
M  V30 15 C 9.293682 8.995396 -9.884434 0
M  V30 16 C 7.923414 7.312938 -12.726244 0
M  V30 17 C 7.500930 1.172017 -17.915774 0 CFG=1
M  V30 18 O 12.209971 8.465097 -9.531066 0
M  V30 19 C 7.271528 3.352593 -19.109605 0
M  V30 20 O 11.168869 7.805550 -7.215005 0
M  V30 21 C 5.431844 1.806785 -19.387119 0
M  V30 22 C 8.569531 4.851162 -17.542159 0
M  V30 23 C 6.874286 1.014450 -16.495063 0 CFG=1
M  V30 24 C 8.237937 3.942187 -13.158988 0
M  V30 25 C 11.018466 9.127106 -5.244256 0
M  V30 26 C 4.787337 0.650905 -19.138300 0
M  V30 27 C 12.223045 8.816432 -4.323879 0 CFG=2
M  V30 28 C 10.407653 7.924085 -6.010832 0 CFG=2
M  V30 29 C 12.234844 7.425474 -3.665173 0
M  V30 30 C 6.820484 -0.447273 -16.006725 0
M  V30 31 O 6.690392 4.915683 -11.542070 0
M  V30 32 C 11.815601 6.305424 -4.621574 0
M  V30 33 O 10.232887 5.876340 -8.050535 0
M  V30 34 N 9.034842 6.693553 -10.597929 0 CHG=1
M  V30 35 C 11.255688 7.413646 -9.591843 0 CFG=2
M  V30 36 O 7.706833 -0.054657 -18.594779 0
M  V30 37 H 11.496493 9.590300 -2.705365 0
M  V30 38 H 10.047039 5.769318 -5.716635 0
M  V30 39 H 9.834841 6.655613 -4.291689 0
M  V30 40 H 9.468135 4.490323 -15.640976 0
M  V30 41 H 9.513373 3.118176 -16.675049 0
M  V30 42 H 8.292759 8.569313 -5.676015 0
M  V30 43 H 9.031482 9.211398 -7.084669 0
M  V30 44 H 8.502221 7.523426 -7.026790 0
M  V30 45 H 9.691400 6.105690 -12.477595 0
M  V30 46 H 9.320046 3.863034 -19.373463 0
M  V30 47 H 6.316409 5.241617 -19.461066 0
M  V30 48 H 7.151615 4.501305 -20.918137 0
M  V30 49 H 8.545422 4.285333 -11.100298 0
M  V30 50 H 6.741644 3.601719 -16.292472 0
M  V30 51 H 10.398899 8.065876 -11.449162 0
M  V30 52 H 6.257895 3.945862 -14.024955 0
M  V30 53 H 7.244661 5.241993 -14.604655 0
M  V30 54 H 8.601182 1.503429 -15.249063 0
M  V30 55 H 7.062282 1.660390 -14.474381 0
M  V30 56 H 8.662026 8.752608 -9.043980 0
M  V30 57 H 8.634728 9.449013 -10.622775 0
M  V30 58 H 9.981177 9.745067 -9.491674 0
M  V30 59 H 7.808690 7.083756 -13.780855 0
M  V30 60 H 6.928948 7.445180 -12.298723 0
M  V30 61 H 8.415364 8.283998 -12.691327 0
M  V30 62 H 8.519048 1.537910 -17.799959 0
M  V30 63 H 12.479586 8.714738 -10.401428 0
M  V30 64 H 4.957422 2.520418 -20.045490 0
M  V30 65 H 7.699364 5.477525 -17.341712 0
M  V30 66 H 9.405453 5.538798 -17.667826 0
M  V30 67 H 5.838342 1.351284 -16.541638 0
M  V30 68 H 9.272812 4.013511 -13.489123 0
M  V30 69 H 8.115850 2.907436 -12.839641 0
M  V30 70 H 10.235305 9.637684 -4.691608 0
M  V30 71 H 11.325029 9.891595 -5.960698 0
M  V30 72 H 3.826249 0.448563 -19.588302 0
M  V30 73 H 5.202207 -0.100460 -18.489072 0
M  V30 74 H 13.137601 8.969367 -4.893163 0
M  V30 75 H 13.220328 7.222828 -3.244496 0
M  V30 76 H 11.549741 7.408382 -2.815738 0
M  V30 77 H 7.821160 -0.874251 -15.940644 0
M  V30 78 H 6.365005 -0.522341 -15.017914 0
M  V30 79 H 6.229829 -1.082234 -16.667309 0
M  V30 80 H 6.603692 5.317972 -10.689225 0
M  V30 81 H 12.470690 6.144606 -5.465252 0
M  V30 82 H 11.795700 5.369974 -4.070405 0
M  V30 83 H 9.348093 5.909745 -10.041203 0
M  V30 84 H 11.758956 6.569526 -10.027217 0
M  V30 85 H 6.866193 -0.397010 -18.854883 0
M  V30 86 H 8.161257 7.034258 -10.177514 0
M  V30 END ATOM
M  V30 BEGIN BOND
M  V30 1 1 8 7
M  V30 2 1 9 6
M  V30 3 1 10 3
M  V30 4 1 13 10
M  V30 5 1 14 10
M  V30 6 1 15 11
M  V30 7 1 16 6
M  V30 8 1 17 4
M  V30 9 2 19 4
M  V30 10 1 19 7
M  V30 11 1 19 8
M  V30 12 1 20 12
M  V30 13 1 21 4
M  V30 14 1 22 3
M  V30 15 1 22 7
M  V30 16 1 23 14
M  V30 17 1 23 17
M  V30 18 1 24 9
M  V30 19 1 24 13
M  V30 20 2 26 21
M  V30 21 1 27 1
M  V30 22 1 27 25
M  V30 23 1 28 2
M  V30 24 1 28 5
M  V30 25 1 28 20 CFG=3
M  V30 26 1 28 25
M  V30 27 1 29 27
M  V30 28 1 30 23
M  V30 29 1 31 9
M  V30 30 1 32 2
M  V30 31 1 32 29
M  V30 32 2 33 12
M  V30 33 1 34 6
M  V30 34 1 34 11
M  V30 35 1 35 11
M  V30 36 1 35 12
M  V30 37 1 35 18
M  V30 38 1 36 17
M  V30 39 1 37 1
M  V30 40 1 38 2
M  V30 41 1 39 2
M  V30 42 1 40 3
M  V30 43 1 41 3
M  V30 44 1 42 5
M  V30 45 1 43 5
M  V30 46 1 44 5
M  V30 47 1 6 45 CFG=3
M  V30 48 1 7 46 CFG=3
M  V30 49 1 47 8
M  V30 50 1 48 8
M  V30 51 1 9 49 CFG=1
M  V30 52 1 10 50 CFG=3
M  V30 53 1 11 51 CFG=3
M  V30 54 1 52 13
M  V30 55 1 53 13
M  V30 56 1 54 14
M  V30 57 1 55 14
M  V30 58 1 56 15
M  V30 59 1 57 15
M  V30 60 1 58 15
M  V30 61 1 59 16
M  V30 62 1 60 16
M  V30 63 1 61 16
M  V30 64 1 17 62 CFG=1
M  V30 65 1 63 18
M  V30 66 1 64 21
M  V30 67 1 65 22
M  V30 68 1 66 22
M  V30 69 1 23 67 CFG=3
M  V30 70 1 68 24
M  V30 71 1 69 24
M  V30 72 1 70 25
M  V30 73 1 71 25
M  V30 74 1 72 26
M  V30 75 1 73 26
M  V30 76 1 27 74 CFG=3
M  V30 77 1 75 29
M  V30 78 1 76 29
M  V30 79 1 77 30
M  V30 80 1 78 30
M  V30 81 1 79 30
M  V30 82 1 80 31
M  V30 83 1 81 32
M  V30 84 1 82 32
M  V30 85 1 83 34
M  V30 86 1 35 84 CFG=3
M  V30 87 1 85 36
M  V30 88 1 86 34
M  V30 END BOND
M  V30 END CTAB
M  END
>  <i_epik_Tot_Q>  (1) 
1

>  <i_epik_Tot_abs_Q>  (1) 
1

>  <i_i_glide_confnum>  (1) 
2504

>  <i_i_glide_lignum>  (1) 
174

>  <i_i_glide_posenum>  (1) 
383

>  <i_i_glide_rotatable_bonds>  (1) 
15

>  <i_lp_mmshare_version>  (1) 
72125

>  <i_m_source_file_index>  (1) 
86

>  <i_f3d_flags>  (1) 
0

>  <num_sample>  (1) 
100

>  <b_lp_Chiralities_Consistent>  (1) 
1

>  <r_epik_Charging_Adjusted_Penalty>  (1) 
0.062696987853435748

>  <r_epik_Ionization_Penalty>  (1) 
0.034019236300638377

>  <r_epik_Ionization_Penalty_Charging>  (1) 
0.03134849392671793

>  <r_epik_Ionization_Penalty_Neutral>  (1) 
0.0026707423739204469

>  <r_epik_State_Penalty>  (1) 
0.031348493926717819

>  <r_glide_ring_energy>  (1) 
0

>  <r_i_docking_score>  (1) 
-4.3883682982667116

>  <r_i_glide_ecoul>  (1) 
-6.0043658490732179

>  <r_i_glide_eff_state_penalty>  (1) 
0.031348493926717819

>  <r_i_glide_einternal>  (1) 
13.188457524140318

>  <r_i_glide_emodel>  (1) 
-25.985012705231831

>  <r_i_glide_emodel_strain>  (1) 
4.1943950992740042

>  <r_i_glide_energy>  (1) 
-29.115988509852585

>  <r_i_glide_erotb>  (1) 
0.87027123501495496

>  <r_i_glide_esite>  (1) 
-0.10976371027856822

>  <r_i_glide_evdw>  (1) 
-23.111622660779368

>  <r_i_glide_gscore>  (1) 
-4.4197167921934293

>  <r_i_glide_gscore_strain>  (1) 
0.048598774818501056

>  <r_i_glide_hbond>  (1) 
-0.20000000000000001

>  <r_i_glide_ligand_efficiency>  (1) 
-0.12189911939629755

>  <r_i_glide_ligand_efficiency_ln>  (1) 
-0.95742340267167481

>  <r_i_glide_ligand_efficiency_sa>  (1) 
-0.40250202395089446

>  <r_i_glide_lipo>  (1) 
-2.833334768471969

>  <r_i_glide_metal>  (1) 
-0

>  <r_i_glide_rewards>  (1) 
-0.13925231287639686

>  <r_lp_Energy>  (1) 
47.724364000000001

>  <s_epik_Chemistry_Notes>  (1) 
This compound has an ester and may undergo hydrolysis at high or low pH.

>  <s_epik_cmdline>  (1) 
J2VwaWtfcHl0aG9uJywgJy1waHQnLCAnMS4wJywgJy1waCcsICc3LjQnLCAnLXRuJywgJzgnLCAnLW1hJywgJzUwMCcsICctaW1hZScsICc8aW5maWxlLm1hZT4nLCAnLW9tYWUnLCAnPG91dGZpbGUubWFlPic=

>  <s_epik_input>  (1) 
W09IXVtDQEhdKFtDSDJdMSlbQ0gyXVtDSDJdW0NIMl1bQ0BdMShbQ0gzXSlPQyg9TylbQ0BIXShbT0hdKVtDQEhdKFtDSDNdKVtOSF1bQ0BIXShbQ0gzXSlbQ0BASF0oW09IXSlbQ0gyXVtDSDJdW0NAQEhdKFtDSDJdW0NIMl0yKVtDSDJdW0NASF0oW0NIM10pW0NAQEhdKFtPSF0pL0MoPUMoXFtDSF0yMylbQ0gyXTMpW0NIXT1bQ0gyXQ==

>  <s_glide_docking_method>  (1) 
confgen

>  <s_i_glide_gridfile>  (1) 
gpcr_drd2_6luq_protein_autoprepared_prepared

>  <s_lp_Force_Field>  (1) 
S-OPLS

>  <s_lp_Variant>  (1) 
DiffSBDD_85_num_sample_100-1

>  <s_m_source_file>  (1) 
generated__ligand_DiffSBDD_2026-05-06_prepared.sdf

>  <GenAI_Model>  (1) 
DiffSBDD

>  <Protein>  (1) 
generic_title2

$$$$
DiffSBDD_29_num_sample_100
     RDKit          3D

  0  0  0  0  0  0  0  0  0  0999 V3000
M  V30 BEGIN CTAB
M  V30 COUNTS 73 77 0 0 1
M  V30 BEGIN ATOM
M  V30 1 F 10.120049 5.785046 -17.574458 0
M  V30 2 O 6.235126 3.403436 -11.862978 0
M  V30 3 N 7.698176 7.508570 -11.891664 0
M  V30 4 C 9.553556 5.369580 -8.017555 0
M  V30 5 N 9.611942 6.271065 -21.210455 0
M  V30 6 C 8.569747 7.904603 -22.757665 0
M  V30 7 C 6.549985 4.724163 -13.797983 0 CFG=1
M  V30 8 C 6.416855 8.839357 -22.045020 0
M  V30 9 C 8.591624 7.154218 -21.573967 0
M  V30 10 C 6.454867 7.769298 -12.453725 0
M  V30 11 C 8.045068 5.122409 -10.121961 0
M  V30 12 N 5.835109 5.967937 -15.725308 0
M  V30 13 C 10.172366 7.797769 -7.804512 0 CFG=1
M  V30 14 O 9.864484 8.964638 -7.080308 0
M  V30 15 O 3.934575 7.411911 -16.707498 0
M  V30 16 C 9.993260 6.786519 -11.652528 0
M  V30 17 C 10.134640 6.714109 -10.113686 0 CFG=2
M  V30 18 C 9.323724 5.760602 -19.803406 0 CFG=2
M  V30 19 C 7.195412 6.224562 -18.432445 0
M  V30 20 C 7.575136 3.807221 -14.502214 0
M  V30 21 C 5.898395 7.203910 -13.553704 0
M  V30 22 C 6.664501 4.689567 -12.254001 0 CFG=2
M  V30 23 N 5.937654 6.796791 -18.209750 0
M  V30 24 C 6.486663 8.071141 -20.859135 0
M  V30 25 C 7.936800 6.415500 -19.550165 0
M  V30 26 C 9.434825 5.451871 -9.543945 0 CFG=1
M  V30 27 C 7.468030 8.759733 -22.997547 0
M  V30 28 C 9.284108 6.671921 -7.274709 0
M  V30 29 F 11.584326 5.653502 -19.167862 0
M  V30 30 C 8.599962 6.425521 -12.219711 0 CFG=1
M  V30 31 C 9.974588 8.026410 -9.318286 0
M  V30 32 C 6.531126 6.137320 -14.444813 0 CFG=1
M  V30 33 C 8.058619 5.075591 -11.669172 0 CFG=1
M  V30 34 C 10.414484 6.184431 -18.812490 0
M  V30 35 C 7.611202 7.236697 -20.665039 0
M  V30 36 O 6.234770 8.462819 -16.260017 0
M  V30 37 S 5.400072 7.328129 -16.669684 0
M  V30 38 H 6.168129 3.395217 -10.919865 0
M  V30 39 H 8.906368 4.579363 -7.639758 0
M  V30 40 H 10.572543 5.060742 -7.783814 0
M  V30 41 H 10.565141 6.450676 -21.492456 0
M  V30 42 H 9.374672 7.829880 -23.474219 0
M  V30 43 H 5.567204 4.291250 -13.998022 0
M  V30 44 H 5.573340 9.489789 -22.222094 0
M  V30 45 H 5.907406 8.518865 -11.891681 0
M  V30 46 H 7.729573 4.168509 -9.733254 0
M  V30 47 H 7.268524 5.769296 -9.742338 0
M  V30 48 H 5.045395 5.332004 -15.632077 0
M  V30 49 H 11.217356 7.550405 -7.610785 0
M  V30 50 H 8.943527 9.139299 -7.208945 0
M  V30 51 H 10.299546 7.768946 -12.008028 0
M  V30 52 H 10.711781 6.092172 -12.087238 0
M  V30 53 H 11.192021 6.569359 -9.929147 0
M  V30 54 H 9.215565 4.675501 -19.816641 0
M  V30 55 H 7.531935 5.595395 -17.621276 0
M  V30 56 H 8.593355 4.183509 -14.402620 0
M  V30 57 H 7.363669 3.726954 -15.569272 0
M  V30 58 H 7.553008 2.794853 -14.097871 0
M  V30 59 H 5.902266 5.326041 -11.806020 0
M  V30 60 H 5.524966 7.306576 -18.985786 0
M  V30 61 H 5.705110 8.144099 -20.129732 0
M  V30 62 H 10.007242 4.599766 -9.902013 0
M  V30 63 H 7.426029 9.347997 -23.899239 0
M  V30 64 H 9.452950 6.528388 -6.205810 0
M  V30 65 H 8.236228 6.930416 -7.384706 0
M  V30 66 H 8.780817 6.360911 -13.280783 0
M  V30 67 H 9.034794 8.507263 -9.525620 0
M  V30 68 H 10.723416 8.742563 -9.659230 0
M  V30 69 H 7.518974 6.480967 -14.736351 0
M  V30 70 H 8.766179 4.300532 -11.967102 0
M  V30 71 H 10.548783 7.264145 -18.805299 0
M  V30 72 H 4.922119 7.531074 -13.847312 0
M  V30 73 H 7.877418 7.950654 -10.989722 0
M  V30 END ATOM
M  V30 BEGIN BOND
M  V30 1 1 9 5
M  V30 2 2 9 6
M  V30 3 1 10 3
M  V30 4 1 14 13
M  V30 5 1 17 16
M  V30 6 1 18 5
M  V30 7 1 20 7
M  V30 8 2 21 10
M  V30 9 1 22 2
M  V30 10 1 22 7
M  V30 11 1 23 19
M  V30 12 1 24 8
M  V30 13 1 25 18
M  V30 14 2 25 19
M  V30 15 1 26 4
M  V30 16 1 26 11
M  V30 17 1 26 17
M  V30 18 1 27 6
M  V30 19 2 27 8
M  V30 20 1 28 4
M  V30 21 1 28 13
M  V30 22 1 30 3
M  V30 23 1 30 16
M  V30 24 1 31 13
M  V30 25 1 31 17
M  V30 26 1 32 7
M  V30 27 1 32 12
M  V30 28 1 32 21
M  V30 29 1 33 11
M  V30 30 1 33 22
M  V30 31 1 33 30
M  V30 32 1 34 1
M  V30 33 1 34 18
M  V30 34 1 34 29
M  V30 35 1 35 9
M  V30 36 2 35 24
M  V30 37 1 35 25
M  V30 38 1 37 12
M  V30 39 2 37 15
M  V30 40 1 37 23
M  V30 41 2 37 36
M  V30 42 1 38 2
M  V30 43 1 39 4
M  V30 44 1 40 4
M  V30 45 1 41 5
M  V30 46 1 42 6
M  V30 47 1 7 43 CFG=1
M  V30 48 1 44 8
M  V30 49 1 45 10
M  V30 50 1 46 11
M  V30 51 1 47 11
M  V30 52 1 48 12
M  V30 53 1 13 49 CFG=3
M  V30 54 1 50 14
M  V30 55 1 51 16
M  V30 56 1 52 16
M  V30 57 1 17 53 CFG=3
M  V30 58 1 18 54 CFG=3
M  V30 59 1 55 19
M  V30 60 1 56 20
M  V30 61 1 57 20
M  V30 62 1 58 20
M  V30 63 1 22 59 CFG=1
M  V30 64 1 60 23
M  V30 65 1 61 24
M  V30 66 1 26 62 CFG=3
M  V30 67 1 63 27
M  V30 68 1 64 28
M  V30 69 1 65 28
M  V30 70 1 30 66 CFG=3
M  V30 71 1 67 31
M  V30 72 1 68 31
M  V30 73 1 32 69 CFG=3
M  V30 74 1 33 70 CFG=1
M  V30 75 1 71 34
M  V30 76 1 72 21
M  V30 77 1 73 3
M  V30 END BOND
M  V30 END CTAB
M  END
>  <i_epik_Tot_Q>  (1) 
0

>  <i_epik_Tot_abs_Q>  (1) 
0

>  <i_i_glide_confnum>  (1) 
97

>  <i_i_glide_lignum>  (1) 
52

>  <i_i_glide_posenum>  (1) 
103

>  <i_i_glide_rotatable_bonds>  (1) 
7

>  <i_lp_mmshare_version>  (1) 
72125

>  <i_m_source_file_index>  (1) 
30

>  <i_f3d_flags>  (1) 
0

>  <num_sample>  (1) 
100

>  <b_lp_Chiralities_Consistent>  (1) 
1

>  <r_epik_Charging_Adjusted_Penalty>  (1) 
1.5459132844328078e-07

>  <r_epik_Ionization_Penalty>  (1) 
1.5952634643945804

>  <r_epik_Ionization_Penalty_Charging>  (1) 
1.5459132844328078e-07

>  <r_epik_Ionization_Penalty_Neutral>  (1) 
1.595263309803252

>  <r_epik_State_Penalty>  (1) 
-0

>  <r_glide_ring_energy>  (1) 
0

>  <r_i_docking_score>  (1) 
-4.381037881673941

>  <r_i_glide_ecoul>  (1) 
-3.8799347452396571

>  <r_i_glide_eff_state_penalty>  (1) 
-0

>  <r_i_glide_einternal>  (1) 
9.8002098066698231

>  <r_i_glide_emodel>  (1) 
-32.469544093864108

>  <r_i_glide_emodel_strain>  (1) 
1.202683840350204

>  <r_i_glide_energy>  (1) 
-35.38839223516672

>  <r_i_glide_erotb>  (1) 
0.28486469644810641

>  <r_i_glide_esite>  (1) 
-0.10000000000000001

>  <r_i_glide_evdw>  (1) 
-31.508457489927061

>  <r_i_glide_gscore>  (1) 
-4.381037881673941

>  <r_i_glide_gscore_strain>  (1) 
0

>  <r_i_glide_hbond>  (1) 
-0.096225798847340588

>  <r_i_glide_ligand_efficiency>  (1) 
-0.11840642923443084

>  <r_i_glide_ligand_efficiency_ln>  (1) 
-0.95014441043508979

>  <r_i_glide_ligand_efficiency_sa>  (1) 
-0.39455649087034073

>  <r_i_glide_lipo>  (1) 
-1.1197435393214203

>  <r_i_glide_metal>  (1) 
-0

>  <r_i_glide_rewards>  (1) 
-1.1925201536709849

>  <r_lp_Energy>  (1) 
37.495854000000001

>  <r_lp_tautomer_probability>  (1) 
1

>  <s_epik_Chemistry_Notes>  (1) 
This compound has an imine and may undergo hydrolysis.

>  <s_epik_cmdline>  (1) 
J2VwaWtfcHl0aG9uJywgJy1waHQnLCAnMS4wJywgJy1waCcsICc3LjQnLCAnLXRuJywgJzgnLCAnLW1hJywgJzUwMCcsICctaW1hZScsICc8aW5maWxlLm1hZT4nLCAnLW9tYWUnLCAnPG91dGZpbGUubWFlPic=

>  <s_epik_input>  (1) 
W2NIXTFbY0hdW2NIXVtjSF1jKGMxMilDKC9bQ0BASF0oW05IXTIpW0NIXShGKUYpPVtDSF1cW05IXVMoPU8pKD1PKVtOSF1bQ0BIXShbQ0BASF0oW0NIM10pW0NASF0zW09IXSlbQ0gyXVxbQ0hdPU5cW0NAQEhdKFtDSDJdNClbQ0BIXTNbQ0gyXVtDQEBIXShbQ0BASF00NSlbQ0gyXVtDSDJdW0NASF0oW09IXSlbQ0gyXTU=

>  <s_glide_docking_method>  (1) 
confgen

>  <s_i_glide_gridfile>  (1) 
gpcr_drd2_6luq_protein_autoprepared_prepared

>  <s_lp_Force_Field>  (1) 
S-OPLS

>  <s_lp_Variant>  (1) 
DiffSBDD_29_num_sample_100-2

>  <s_m_source_file>  (1) 
generated__ligand_DiffSBDD_2026-05-06_prepared.sdf

>  <GenAI_Model>  (1) 
DiffSBDD

>  <Protein>  (1) 
generic_title2

$$$$
DiffSBDD_60_num_sample_100
     RDKit          3D

  0  0  0  0  0  0  0  0  0  0999 V3000
M  V30 BEGIN CTAB
M  V30 COUNTS 39 41 0 0 1
M  V30 BEGIN ATOM
M  V30 1 C 9.947944 4.931464 -16.363686 0
M  V30 2 N 6.119045 5.264680 -14.743636 0
M  V30 3 C 6.553077 6.513548 -18.750412 0
M  V30 4 C 5.478116 6.964796 -18.089031 0
M  V30 5 N 9.052862 5.369045 -15.315861 0
M  V30 6 C 7.515590 6.670712 -13.194864 0
M  V30 7 C 7.257778 5.014498 -16.902314 0 CFG=2
M  V30 8 N 7.445896 5.610523 -18.216113 0
M  V30 9 C 5.642403 5.061442 -12.417906 0
M  V30 10 C 5.144452 6.528830 -16.670909 0
M  V30 11 C 9.185833 4.754153 -14.002654 0
M  V30 12 C 6.127378 6.036832 -13.510083 0 CFG=2
M  V30 13 C 6.424125 5.978480 -15.981882 0 CFG=1
M  V30 14 C 8.531867 4.414129 -16.288336 0 CFG=1
M  V30 15 C 8.713831 5.727757 -12.896480 0
M  V30 16 C 5.384266 5.729862 -11.065787 0
M  V30 17 H 10.178813 5.640803 -17.155619 0
M  V30 18 H 10.761227 4.261797 -16.090405 0
M  V30 19 H 6.846839 4.573463 -14.629804 0
M  V30 20 H 6.790869 6.827730 -19.756601 0
M  V30 21 H 7.390046 7.308125 -12.319396 0
M  V30 22 H 7.808887 7.382355 -13.963694 0
M  V30 23 H 6.635832 4.148621 -17.116174 0
M  V30 24 H 6.365404 4.256499 -12.283463 0
M  V30 25 H 4.728580 4.567939 -12.746021 0
M  V30 26 H 4.356362 5.777943 -16.713198 0
M  V30 27 H 4.754768 7.380714 -16.113109 0
M  V30 28 H 8.632684 3.817539 -13.926511 0
M  V30 29 H 10.233686 4.533271 -13.818110 0
M  V30 30 H 5.390242 6.834376 -13.615174 0
M  V30 31 H 7.036778 6.852575 -15.786041 0
M  V30 32 H 8.424372 3.372987 -15.988489 0
M  V30 33 H 9.561185 6.369328 -12.652208 0
M  V30 34 H 8.522078 5.161579 -11.984647 0
M  V30 35 H 5.038105 5.006129 -10.328294 0
M  V30 36 H 4.639487 6.522875 -11.130889 0
M  V30 37 H 6.304732 6.167780 -10.691400 0
M  V30 38 H 4.806304 7.668158 -18.559628 0
M  V30 39 H 8.232978 5.297688 -18.766102 0
M  V30 END ATOM
M  V30 BEGIN BOND
M  V30 1 2 4 3
M  V30 2 1 5 1
M  V30 3 1 8 3
M  V30 4 1 8 7
M  V30 5 1 10 4
M  V30 6 1 11 5
M  V30 7 1 12 2
M  V30 8 1 12 6
M  V30 9 1 12 9
M  V30 10 1 13 2
M  V30 11 1 13 7
M  V30 12 1 13 10
M  V30 13 1 14 1
M  V30 14 1 14 5
M  V30 15 1 14 7
M  V30 16 1 15 6
M  V30 17 1 15 11
M  V30 18 1 16 9
M  V30 19 1 17 1
M  V30 20 1 18 1
M  V30 21 1 19 2
M  V30 22 1 20 3
M  V30 23 1 21 6
M  V30 24 1 22 6
M  V30 25 1 7 23 CFG=3
M  V30 26 1 24 9
M  V30 27 1 25 9
M  V30 28 1 26 10
M  V30 29 1 27 10
M  V30 30 1 28 11
M  V30 31 1 29 11
M  V30 32 1 12 30 CFG=3
M  V30 33 1 13 31 CFG=1
M  V30 34 1 14 32 CFG=1
M  V30 35 1 33 15
M  V30 36 1 34 15
M  V30 37 1 35 16
M  V30 38 1 36 16
M  V30 39 1 37 16
M  V30 40 1 38 4
M  V30 41 1 39 8
M  V30 END BOND
M  V30 END CTAB
M  END
>  <i_epik_Tot_Q>  (1) 
0

>  <i_epik_Tot_abs_Q>  (1) 
0

>  <i_i_glide_confnum>  (1) 
1

>  <i_i_glide_lignum>  (1) 
120

>  <i_i_glide_posenum>  (1) 
316

>  <i_i_glide_rotatable_bonds>  (1) 
1

>  <i_lp_mmshare_version>  (1) 
72125

>  <i_m_source_file_index>  (1) 
61

>  <i_f3d_flags>  (1) 
0

>  <num_sample>  (1) 
100

>  <b_lp_Chiralities_Consistent>  (1) 
1

>  <r_epik_Charging_Adjusted_Penalty>  (1) 
4.9692066631576726e-06

>  <r_epik_Ionization_Penalty>  (1) 
2.1336840305667621

>  <r_epik_Ionization_Penalty_Charging>  (1) 
4.9692066631576726e-06

>  <r_epik_Ionization_Penalty_Neutral>  (1) 
2.1336790613600991

>  <r_epik_State_Penalty>  (1) 
-0

>  <r_glide_ring_energy>  (1) 
0

>  <r_i_docking_score>  (1) 
-4.3795775708303264

>  <r_i_glide_ecoul>  (1) 
-1.4180351705720264

>  <r_i_glide_eff_state_penalty>  (1) 
-0

>  <r_i_glide_einternal>  (1) 
0.56512865076345897

>  <r_i_glide_emodel>  (1) 
-22.034678252659358

>  <r_i_glide_emodel_strain>  (1) 
0

>  <r_i_glide_energy>  (1) 
-17.672741651976708

>  <r_i_glide_erotb>  (1) 
0

>  <r_i_glide_esite>  (1) 
0

>  <r_i_glide_evdw>  (1) 
-16.254706481404682

>  <r_i_glide_gscore>  (1) 
-4.3795775708303264

>  <r_i_glide_gscore_strain>  (1) 
0

>  <r_i_glide_hbond>  (1) 
0

>  <r_i_glide_ligand_efficiency>  (1) 
-0.2737235981768954

>  <r_i_glide_ligand_efficiency_ln>  (1) 
-1.160894519196404

>  <r_i_glide_ligand_efficiency_sa>  (1) 
-0.68974024639207299

>  <r_i_glide_lipo>  (1) 
-1.4542394257197426

>  <r_i_glide_metal>  (1) 
-0

>  <r_i_glide_rewards>  (1) 
-1.8998975454545457

>  <r_lp_Energy>  (1) 
35.391235999999999

>  <r_lp_tautomer_probability>  (1) 
1

>  <s_epik_Chemistry_Notes>  (1) 
This compound has an imine and may undergo hydrolysis.

>  <s_epik_cmdline>  (1) 
J2VwaWtfcHl0aG9uJywgJy1waHQnLCAnMS4wJywgJy1waCcsICc3LjQnLCAnLXRuJywgJzgnLCAnLW1hJywgJzUwMCcsICctaW1hZScsICc8aW5maWxlLm1hZT4nLCAnLW9tYWUnLCAnPG91dGZpbGUubWFlPic=

>  <s_epik_input>  (1) 
W05IXTFbQ0hdPVtDSF1bQ0gyXVtDQEhdKFtDQEBIXTFbQ0BIXShOMjMpW0NIMl0yKVtOSF1bQ0BASF0oW0NIMl1bQ0gzXSlbQ0gyXVtDSDJdW0NIMl0z

>  <s_glide_docking_method>  (1) 
confgen

>  <s_i_glide_gridfile>  (1) 
gpcr_drd2_6luq_protein_autoprepared_prepared

>  <s_lp_Force_Field>  (1) 
S-OPLS

>  <s_lp_Variant>  (1) 
DiffSBDD_60_num_sample_100-1

>  <s_m_source_file>  (1) 
generated__ligand_DiffSBDD_2026-05-06_prepared.sdf

>  <GenAI_Model>  (1) 
DiffSBDD

>  <Protein>  (1) 
generic_title2

$$$$
DiffSBDD_56_num_sample_100
     RDKit          3D

  0  0  0  0  0  0  0  0  0  0999 V3000
M  V30 BEGIN CTAB
M  V30 COUNTS 70 76 0 0 1
M  V30 BEGIN ATOM
M  V30 1 O 6.151152 6.999604 -21.664062 0
M  V30 2 C 8.917225 5.675413 -9.058991 0
M  V30 3 C 9.572460 8.969351 -9.093869 0
M  V30 4 C 10.231378 7.339695 -10.968718 0
M  V30 5 C 8.640932 4.289783 -17.364695 0 CFG=2
M  V30 6 C 8.580265 5.726651 -12.232171 0
M  V30 7 F 8.726017 7.992146 -12.547294 0
M  V30 8 C 7.860818 5.447424 -20.910924 0
M  V30 9 C 6.705867 4.104803 -12.786223 0 CFG=1
M  V30 10 C 6.774855 6.314564 -20.628484 0
M  V30 11 C 7.839173 4.969335 -9.212464 0
M  V30 12 C 7.594425 4.249146 -15.011658 0 CFG=1
M  V30 13 C 5.345166 4.347855 -13.259773 0
M  V30 14 N 7.809277 5.009723 -16.278965 0 CFG=2 CHG=1
M  V30 15 C 10.058841 6.666651 -7.115402 0
M  V30 16 C 8.837906 7.070760 -11.590682 0 CFG=2
M  V30 17 C 7.001673 5.761105 -18.264777 0
M  V30 18 C 5.036124 7.888132 -21.431598 0
M  V30 19 C 5.237687 7.368063 -19.001498 0
M  V30 20 C 9.734578 6.584239 -8.605551 0
M  V30 21 C 8.335036 5.261349 -22.337993 0
M  V30 22 C 6.637144 5.836024 -16.828902 0
M  V30 23 C 8.957662 4.205144 -14.239500 0
M  V30 24 C 4.632443 8.030319 -19.979887 0
M  V30 25 C 9.215487 5.439885 -13.392707 0
M  V30 26 C 6.338912 6.475302 -19.285849 0
M  V30 27 C 11.069409 8.859202 -9.013126 0
M  V30 28 C 6.527387 4.858016 -14.097281 0 CFG=1
M  V30 29 O 11.435814 6.539231 -6.873420 0
M  V30 30 C 7.490929 4.815495 -11.762385 0
M  V30 31 C 8.038499 4.949130 -18.539627 0
M  V30 32 C 8.495793 2.756096 -17.419601 0
M  V30 33 C 7.157281 4.565321 -10.451421 0
M  V30 34 C 8.500918 4.762015 -19.854317 0
M  V30 35 C 10.230631 7.673402 -9.480467 0
M  V30 36 H 9.077659 9.501287 -9.893529 0
M  V30 37 H 9.026881 9.023086 -8.155366 0
M  V30 38 H 10.951832 6.568218 -11.188049 0
M  V30 39 H 10.655595 8.176219 -11.491831 0
M  V30 40 H 9.692205 4.572230 -17.284486 0
M  V30 41 H 6.959101 3.044838 -12.799860 0
M  V30 42 H 7.434516 4.525010 -8.317866 0
M  V30 43 H 7.258063 3.238598 -15.244482 0
M  V30 44 H 4.802970 5.062799 -12.657282 0
M  V30 45 H 4.794905 3.444089 -13.500378 0
M  V30 46 H 9.551354 5.867369 -6.573190 0
M  V30 47 H 9.694550 7.595738 -6.679832 0
M  V30 48 H 7.939873 7.367357 -11.091658 0
M  V30 49 H 5.279903 8.872892 -21.832273 0
M  V30 50 H 4.178840 7.516496 -21.992595 0
M  V30 51 H 4.923664 7.489127 -17.975112 0
M  V30 52 H 9.122650 4.511527 -22.400238 0
M  V30 53 H 7.508529 4.937662 -22.970611 0
M  V30 54 H 8.720093 6.201216 -22.732217 0
M  V30 55 H 5.670031 5.369405 -16.653104 0
M  V30 56 H 6.636147 6.855359 -16.442144 0
M  V30 57 H 9.786922 4.169302 -14.941765 0
M  V30 58 H 9.034666 3.335855 -13.584892 0
M  V30 59 H 3.812361 8.698153 -19.759137 0
M  V30 60 H 9.951525 6.127797 -13.770386 0
M  V30 61 H 11.506022 8.859521 -8.019053 0
M  V30 62 H 11.644645 9.407430 -9.756860 0
M  V30 63 H 6.584393 5.946201 -14.064667 0
M  V30 64 H 11.885100 7.211012 -7.362153 0
M  V30 65 H 9.009532 2.350970 -18.291091 0
M  V30 66 H 8.936511 2.277283 -16.545152 0
M  V30 67 H 7.451030 2.451401 -17.488448 0
M  V30 68 H 6.325688 3.889297 -10.309570 0
M  V30 69 H 9.334060 4.103995 -20.054126 0
M  V30 70 H 8.437519 5.746156 -15.990574 0
M  V30 END ATOM
M  V30 BEGIN BOND
M  V30 1 1 10 1
M  V30 2 1 10 8
M  V30 3 2 11 2
M  V30 4 1 13 9
M  V30 5 1 14 5
M  V30 6 1 14 12
M  V30 7 1 16 4
M  V30 8 1 16 6
M  V30 9 1 16 7
M  V30 10 1 18 1
M  V30 11 2 20 2
M  V30 12 1 20 15
M  V30 13 1 21 8
M  V30 14 1 22 14
M  V30 15 1 22 17
M  V30 16 1 23 12
M  V30 17 1 24 18
M  V30 18 2 24 19
M  V30 19 2 25 6
M  V30 20 1 25 23
M  V30 21 2 26 10
M  V30 22 1 26 17
M  V30 23 1 26 19
M  V30 24 1 27 3
M  V30 25 1 28 9
M  V30 26 1 28 12
M  V30 27 1 28 13
M  V30 28 1 29 15
M  V30 29 1 30 6
M  V30 30 1 30 9
M  V30 31 1 31 5
M  V30 32 2 31 17
M  V30 33 1 32 5
M  V30 34 1 33 11
M  V30 35 2 33 30
M  V30 36 2 34 8
M  V30 37 1 34 31
M  V30 38 1 35 3
M  V30 39 1 35 4
M  V30 40 1 35 20
M  V30 41 1 35 27
M  V30 42 1 36 3
M  V30 43 1 37 3
M  V30 44 1 38 4
M  V30 45 1 39 4
M  V30 46 1 5 40 CFG=1
M  V30 47 1 9 41 CFG=3
M  V30 48 1 42 11
M  V30 49 1 12 43 CFG=3
M  V30 50 1 44 13
M  V30 51 1 45 13
M  V30 52 1 46 15
M  V30 53 1 47 15
M  V30 54 1 16 48 CFG=1
M  V30 55 1 49 18
M  V30 56 1 50 18
M  V30 57 1 51 19
M  V30 58 1 52 21
M  V30 59 1 53 21
M  V30 60 1 54 21
M  V30 61 1 55 22
M  V30 62 1 56 22
M  V30 63 1 57 23
M  V30 64 1 58 23
M  V30 65 1 59 24
M  V30 66 1 60 25
M  V30 67 1 61 27
M  V30 68 1 62 27
M  V30 69 1 28 63 CFG=1
M  V30 70 1 64 29
M  V30 71 1 65 32
M  V30 72 1 66 32
M  V30 73 1 67 32
M  V30 74 1 68 33
M  V30 75 1 69 34
M  V30 76 1 14 70 CFG=1
M  V30 END BOND
M  V30 END CTAB
M  END
>  <i_epik_Tot_Q>  (1) 
1

>  <i_epik_Tot_abs_Q>  (1) 
1

>  <i_i_glide_confnum>  (1) 
8

>  <i_i_glide_lignum>  (1) 
113

>  <i_i_glide_posenum>  (1) 
164

>  <i_i_glide_rotatable_bonds>  (1) 
3

>  <i_lp_mmshare_version>  (1) 
72125

>  <i_m_source_file_index>  (1) 
57

>  <i_f3d_flags>  (1) 
0

>  <num_sample>  (1) 
100

>  <b_lp_Chiralities_Consistent>  (1) 
1

>  <r_epik_Charging_Adjusted_Penalty>  (1) 
0.14231297848205576

>  <r_epik_Ionization_Penalty>  (1) 
0.071157794031890806

>  <r_epik_Ionization_Penalty_Charging>  (1) 
0.071156489241027923

>  <r_epik_Ionization_Penalty_Neutral>  (1) 
1.3047908628845687e-06

>  <r_epik_State_Penalty>  (1) 
0.071156489241027826

>  <r_glide_ring_energy>  (1) 
0

>  <r_i_docking_score>  (1) 
-4.3773381091533334

>  <r_i_glide_ecoul>  (1) 
-1.6556417913974895

>  <r_i_glide_eff_state_penalty>  (1) 
0.071156489241027826

>  <r_i_glide_einternal>  (1) 
5.0237807268101697

>  <r_i_glide_emodel>  (1) 
-26.899391879368196

>  <r_i_glide_emodel_strain>  (1) 
4.4238610286072344

>  <r_i_glide_energy>  (1) 
-27.701345821738073

>  <r_i_glide_erotb>  (1) 
0.18105195314905365

>  <r_i_glide_esite>  (1) 
-0.037124656814161217

>  <r_i_glide_evdw>  (1) 
-26.045704030340584

>  <r_i_glide_gscore>  (1) 
-4.4484945983943609

>  <r_i_glide_gscore_strain>  (1) 
0.1059652571518086

>  <r_i_glide_hbond>  (1) 
0

>  <r_i_glide_ligand_efficiency>  (1) 
-0.12506680311866666

>  <r_i_glide_ligand_efficiency_ln>  (1) 
-0.96092286474419752

>  <r_i_glide_ligand_efficiency_sa>  (1) 
-0.40910180620445985

>  <r_i_glide_lipo>  (1) 
-2.2030051210010639

>  <r_i_glide_metal>  (1) 
-0

>  <r_i_glide_rewards>  (1) 
-0.94475056065334539

>  <r_lp_Energy>  (1) 
56.449574999999996

>  <s_epik_cmdline>  (1) 
J2VwaWtfcHl0aG9uJywgJy1waHQnLCAnMS4wJywgJy1waCcsICc3LjQnLCAnLXRuJywgJzgnLCAnLW1hJywgJzUwMCcsICctaW1hZScsICc8aW5maWxlLm1hZT4nLCAnLW9tYWUnLCAnPG91dGZpbGUubWFlPic=

>  <s_epik_input>  (1) 
TzFbQ0gyXVtDSF09W0NIXWMoYzEyKWMzYyhbY0hdYzJbQ0gzXSlbQ0BIXShbQ0gzXSlOKFtDSDJdMylbQ0BASF0oW0NIMl1bQ0hdNClbQ0BASF0oW0NIMl01KVtDQEhdNUMoXEM9NFtDQEhdKEYpW0NIMl1DNjdbQ0gyXVtDSDJdNyk9W0NIXVxbQ0hdPUM9QzZbQ0gyXVtPSF0=

>  <s_glide_docking_method>  (1) 
confgen

>  <s_i_glide_gridfile>  (1) 
gpcr_drd2_6luq_protein_autoprepared_prepared

>  <s_lp_Force_Field>  (1) 
S-OPLS

>  <s_lp_Variant>  (1) 
DiffSBDD_56_num_sample_100-2

>  <s_m_source_file>  (1) 
generated__ligand_DiffSBDD_2026-05-06_prepared.sdf

>  <GenAI_Model>  (1) 
DiffSBDD

>  <Protein>  (1) 
generic_title2

$$$$
DiffSBDD_8_num_sample_100
     RDKit          3D

  0  0  0  0  0  0  0  0  0  0999 V3000
M  V30 BEGIN CTAB
M  V30 COUNTS 67 70 0 0 1
M  V30 BEGIN ATOM
M  V30 1 C 7.087486 7.206948 -13.137938 0
M  V30 2 C 10.965033 7.772510 -7.756791 0
M  V30 3 C 8.176916 4.504497 -17.388744 0 CFG=1
M  V30 4 C 8.285483 6.704502 -19.936960 0
M  V30 5 O 8.235199 8.417032 -11.491728 0
M  V30 6 N 11.608859 7.922930 -10.102219 0
M  V30 7 C 8.240293 5.368343 -19.765008 0
M  V30 8 O 6.870576 4.854618 -12.826590 0
M  V30 9 C 8.323089 7.224265 -12.240281 0 CFG=1
M  V30 10 C 6.892618 5.860843 -13.835927 0 CFG=2
M  V30 11 C 6.165588 5.794375 -16.947637 0
M  V30 12 C 10.806452 7.369212 -9.103627 0
M  V30 13 O 9.034877 4.970748 -14.620667 0
M  V30 14 C 10.978381 3.492943 -18.633602 0
M  V30 15 C 8.832516 3.109456 -17.199310 0
M  V30 16 O 8.983435 4.519716 -20.547784 0
M  V30 17 C 7.398038 4.643561 -18.720388 0 CFG=2
M  V30 18 O 8.210949 4.821055 -12.119106 0
M  V30 19 C 7.844961 5.600270 -15.040484 0 CFG=1
M  V30 20 C 8.380450 5.988297 -11.317965 0 CFG=1
M  V30 21 O 10.184802 1.310777 -18.003105 0
M  V30 22 C 6.054428 5.310490 -18.389782 0
M  V30 23 C 11.223937 3.726134 -20.138976 0
M  V30 24 C 12.007133 8.814009 -7.386561 0
M  V30 25 C 10.153430 7.203590 -6.754410 0
M  V30 26 C 10.358330 4.853102 -20.731743 0
M  V30 27 C 9.034706 5.826808 -8.428761 0
M  V30 28 O 9.689442 6.004120 -10.751762 0
M  V30 29 C 9.191822 6.232879 -7.091611 0
M  V30 30 C 7.191897 4.880526 -16.250794 0 CFG=2
M  V30 31 C 9.739374 2.608930 -18.343289 0 CFG=2
M  V30 32 C 9.834841 6.398777 -9.440153 0
M  V30 33 H 7.148829 8.005801 -13.876852 0
M  V30 34 H 6.201475 7.404531 -12.531693 0
M  V30 35 H 8.962218 5.261704 -17.380503 0
M  V30 36 H 7.701603 7.366465 -19.315069 0
M  V30 37 H 8.905178 7.148920 -20.701741 0
M  V30 38 H 7.675741 8.234017 -10.727143 0
M  V30 39 H 11.372536 7.776644 -11.073366 0
M  V30 40 H 12.166109 8.741490 -9.904284 0
M  V30 41 H 9.222018 7.254335 -12.849435 0
M  V30 42 H 5.877120 5.888871 -14.230008 0
M  V30 43 H 6.522938 6.824911 -16.959631 0
M  V30 44 H 5.197046 5.795854 -16.447880 0
M  V30 45 H 8.843050 4.485124 -13.828242 0
M  V30 46 H 10.895242 4.460772 -18.141145 0
M  V30 47 H 11.866041 3.040072 -18.188830 0
M  V30 48 H 8.044854 2.372311 -17.037351 0
M  V30 49 H 9.426690 3.113368 -16.291738 0
M  V30 50 H 7.165660 3.656264 -19.122000 0
M  V30 51 H 8.173268 6.568680 -15.407425 0
M  V30 52 H 7.572794 6.012612 -10.589185 0
M  V30 53 H 10.678641 0.961979 -18.728679 0
M  V30 54 H 5.774545 6.111729 -19.073487 0
M  V30 55 H 5.264439 4.566148 -18.465136 0
M  V30 56 H 12.271113 3.992045 -20.286711 0
M  V30 57 H 11.069877 2.799670 -20.693051 0
M  V30 58 H 11.982665 9.040647 -6.320307 0
M  V30 59 H 13.005998 8.454106 -7.633031 0
M  V30 60 H 11.834843 9.740049 -7.933625 0
M  V30 61 H 10.269197 7.509911 -5.725049 0
M  V30 62 H 10.655435 5.793416 -20.265386 0
M  V30 63 H 10.553830 4.955465 -21.799291 0
M  V30 64 H 8.296551 5.079524 -8.678983 0
M  V30 65 H 8.571488 5.799128 -6.321657 0
M  V30 66 H 6.688131 3.977785 -15.903702 0
M  V30 67 H 9.136462 2.484822 -19.241054 0
M  V30 END ATOM
M  V30 BEGIN BOND
M  V30 1 2 7 4
M  V30 2 1 9 1
M  V30 3 1 9 5
M  V30 4 1 10 1
M  V30 5 1 10 8
M  V30 6 2 12 2
M  V30 7 1 12 6
M  V30 8 1 15 3
M  V30 9 1 16 7
M  V30 10 1 17 3
M  V30 11 1 17 7
M  V30 12 1 18 8
M  V30 13 1 19 10
M  V30 14 1 19 13
M  V30 15 1 20 9
M  V30 16 1 20 18
M  V30 17 1 22 11
M  V30 18 1 22 17
M  V30 19 1 23 14
M  V30 20 1 24 2
M  V30 21 1 25 2
M  V30 22 1 26 16
M  V30 23 1 26 23
M  V30 24 1 28 20
M  V30 25 2 29 25
M  V30 26 1 29 27
M  V30 27 1 30 3
M  V30 28 1 30 11
M  V30 29 1 30 19
M  V30 30 1 31 14
M  V30 31 1 31 15
M  V30 32 1 31 21
M  V30 33 1 32 12
M  V30 34 2 32 27
M  V30 35 1 32 28
M  V30 36 1 33 1
M  V30 37 1 34 1
M  V30 38 1 3 35 CFG=3
M  V30 39 1 36 4
M  V30 40 1 37 4
M  V30 41 1 38 5
M  V30 42 1 39 6
M  V30 43 1 40 6
M  V30 44 1 9 41 CFG=3
M  V30 45 1 10 42 CFG=3
M  V30 46 1 43 11
M  V30 47 1 44 11
M  V30 48 1 45 13
M  V30 49 1 46 14
M  V30 50 1 47 14
M  V30 51 1 48 15
M  V30 52 1 49 15
M  V30 53 1 17 50 CFG=3
M  V30 54 1 19 51 CFG=3
M  V30 55 1 20 52 CFG=1
M  V30 56 1 53 21
M  V30 57 1 54 22
M  V30 58 1 55 22
M  V30 59 1 56 23
M  V30 60 1 57 23
M  V30 61 1 58 24
M  V30 62 1 59 24
M  V30 63 1 60 24
M  V30 64 1 61 25
M  V30 65 1 62 26
M  V30 66 1 63 26
M  V30 67 1 64 27
M  V30 68 1 65 29
M  V30 69 1 30 66 CFG=1
M  V30 70 1 31 67 CFG=3
M  V30 END BOND
M  V30 END CTAB
M  END
>  <i_epik_Tot_Q>  (1) 
0

>  <i_epik_Tot_abs_Q>  (1) 
0

>  <i_i_glide_confnum>  (1) 
16

>  <i_i_glide_lignum>  (1) 
14

>  <i_i_glide_posenum>  (1) 
79

>  <i_i_glide_rotatable_bonds>  (1) 
7

>  <i_lp_mmshare_version>  (1) 
72125

>  <i_m_source_file_index>  (1) 
9

>  <i_f3d_flags>  (1) 
0

>  <num_sample>  (1) 
100

>  <b_lp_Chiralities_Consistent>  (1) 
1

>  <r_epik_Charging_Adjusted_Penalty>  (1) 
0

>  <r_epik_Ionization_Penalty>  (1) 
0.0024140143781195595

>  <r_epik_Ionization_Penalty_Charging>  (1) 
0

>  <r_epik_Ionization_Penalty_Neutral>  (1) 
0.0024140143781195595

>  <r_epik_State_Penalty>  (1) 
-0

>  <r_glide_ring_energy>  (1) 
1.5767807932002511

>  <r_i_docking_score>  (1) 
-4.3709986549432429

>  <r_i_glide_ecoul>  (1) 
-6.1054768103762216

>  <r_i_glide_eff_state_penalty>  (1) 
-0

>  <r_i_glide_einternal>  (1) 
16.304484445912557

>  <r_i_glide_emodel>  (1) 
-31.348244044653839

>  <r_i_glide_emodel_strain>  (1) 
3.6161305672297601

>  <r_i_glide_energy>  (1) 
-34.77767805678296

>  <r_i_glide_erotb>  (1) 
0.39668203270713775

>  <r_i_glide_esite>  (1) 
-0.068904714709223977

>  <r_i_glide_evdw>  (1) 
-28.672201246406736

>  <r_i_glide_gscore>  (1) 
-4.3709986549432429

>  <r_i_glide_gscore_strain>  (1) 
0

>  <r_i_glide_hbond>  (1) 
-0.16

>  <r_i_glide_ligand_efficiency>  (1) 
-0.13659370796697634

>  <r_i_glide_ligand_efficiency_ln>  (1) 
-0.97878574776509064

>  <r_i_glide_ligand_efficiency_sa>  (1) 
-0.43365799143803063

>  <r_i_glide_lipo>  (1) 
-1.4922152148147212

>  <r_i_glide_metal>  (1) 
-0

>  <r_i_glide_rewards>  (1) 
-0.69712917424966392

>  <r_lp_Energy>  (1) 
35.494580999999997

>  <r_lp_tautomer_probability>  (1) 
1

>  <s_epik_Chemistry_Notes>  (1) 
This compound contains an acetal/aminal-like group ( X-CH(R)-Y where X, Y are N, S, or O) that may be acid/base labile, releasing an aldehyde.

>  <s_epik_cmdline>  (1) 
J2VwaWtfcHl0aG9uJywgJy1waHQnLCAnMS4wJywgJy1waCcsICc3LjQnLCAnLXRuJywgJzgnLCAnLW1hJywgJzUwMCcsICctaW1hZScsICc8aW5maWxlLm1hZT4nLCAnLW9tYWUnLCAnPG91dGZpbGUubWFlPic=

>  <s_epik_input>  (1) 
W0NIM11jMWMoW05IMl0pYyhbY0hdW2NIXVtjSF0xKU9bQ0BASF0yT09bQ0BASF0oW0NIMl1bQ0BIXTJbT0hdKVtDQEBIXShbT0hdKVtDQEhdM1tDSDJdW0NIMl1bQ0BIXShbQ0BASF0zNClDKD1bQ0gyXSlPW0NIMl1bQ0gyXVtDSDJdW0NASF0oW0NIMl00KVtPSF0=

>  <s_glide_docking_method>  (1) 
confgen

>  <s_i_glide_gridfile>  (1) 
gpcr_drd2_6luq_protein_autoprepared_prepared

>  <s_lp_Force_Field>  (1) 
S-OPLS

>  <s_lp_Variant>  (1) 
DiffSBDD_8_num_sample_100-1

>  <s_m_source_file>  (1) 
generated__ligand_DiffSBDD_2026-05-06_prepared.sdf

>  <GenAI_Model>  (1) 
DiffSBDD

>  <Protein>  (1) 
generic_title2

$$$$
DiffSBDD_56_num_sample_100
     RDKit          3D

  0  0  0  0  0  0  0  0  0  0999 V3000
M  V30 BEGIN CTAB
M  V30 COUNTS 69 75 0 0 1
M  V30 BEGIN ATOM
M  V30 1 O 6.387046 6.332129 -18.888347 0
M  V30 2 C 11.681887 8.472209 -7.751703 0
M  V30 3 C 11.550981 5.988855 -5.674514 0
M  V30 4 C 9.553101 6.694093 -7.142416 0
M  V30 5 C 8.634839 4.008683 -14.259431 0 CFG=2
M  V30 6 C 9.839031 6.580104 -9.728667 0
M  V30 7 F 9.908422 4.782223 -8.297662 0
M  V30 8 C 8.101183 4.893201 -17.926273 0
M  V30 9 C 10.568311 7.240354 -12.078609 0 CFG=1
M  V30 10 C 6.966846 5.735967 -17.773322 0
M  V30 11 C 12.234831 8.656419 -8.911912 0
M  V30 12 C 8.665196 6.056773 -12.855402 0 CFG=1
M  V30 13 C 11.434821 6.569302 -13.062026 0
M  V30 14 N 7.871534 4.899562 -13.299427 0
M  V30 15 C 11.742145 9.251725 -5.398672 0
M  V30 16 C 10.256687 6.064913 -8.372473 0 CFG=2
M  V30 17 C 7.061381 5.339756 -15.374154 0
M  V30 18 C 5.176415 7.119190 -18.785158 0
M  V30 19 C 5.299237 6.827711 -16.313694 0
M  V30 20 C 11.341719 8.278016 -6.500572 0
M  V30 21 C 8.683521 4.639199 -19.301691 0
M  V30 22 C 6.623137 5.476690 -13.970013 0
M  V30 23 C 8.017581 6.589094 -11.554315 0
M  V30 24 C 4.703532 7.369291 -17.368201 0
M  V30 25 C 8.634839 6.169303 -10.212965 0
M  V30 26 C 6.442263 5.965701 -16.474181 0
M  V30 27 C 10.563711 6.496987 -4.691684 0
M  V30 28 C 10.151812 5.872172 -12.582945 0 CFG=1
M  V30 29 O 11.834873 10.569296 -5.891668 0
M  V30 30 C 10.767063 7.369303 -10.629026 0
M  V30 31 C 8.121234 4.554658 -15.523164 0
M  V30 32 C 8.228189 2.544667 -14.011849 0
M  V30 33 C 11.818256 8.180222 -10.241882 0
M  V30 34 C 8.685455 4.296391 -16.782967 0
M  V30 35 C 10.588120 7.086310 -6.097310 0
M  V30 36 H 11.473772 5.110064 -6.291664 0
M  V30 37 H 12.556775 6.169299 -5.349178 0
M  V30 38 H 8.975337 7.574826 -7.429598 0
M  V30 39 H 8.828965 6.005742 -6.703736 0
M  V30 40 H 9.708702 4.169301 -14.206527 0
M  V30 41 H 10.068891 8.124317 -12.473223 0
M  V30 42 H 13.039211 9.369293 -8.942488 0
M  V30 43 H 8.576787 6.824236 -13.621056 0
M  V30 44 H 12.378138 6.177497 -12.691712 0
M  V30 45 H 11.466519 6.906236 -14.088740 0
M  V30 46 H 12.685160 8.969299 -4.933335 0
M  V30 47 H 10.983673 9.260023 -4.616803 0
M  V30 48 H 11.338817 6.032776 -8.313883 0
M  V30 49 H 5.344958 8.080879 -19.270738 0
M  V30 50 H 4.382478 6.615128 -19.335776 0
M  V30 51 H 4.946318 7.023328 -15.317239 0
M  V30 52 H 9.574903 4.012920 -19.248507 0
M  V30 53 H 7.951164 4.139656 -19.935572 0
M  V30 54 H 8.959528 5.583466 -19.772173 0
M  V30 55 H 5.761811 4.832016 -13.793042 0
M  V30 56 H 6.380686 6.501202 -13.684903 0
M  V30 57 H 6.958947 6.333904 -11.491645 0
M  V30 58 H 8.007036 7.679633 -11.570008 0
M  V30 59 H 3.846703 8.014361 -17.238528 0
M  V30 60 H 8.007277 5.548710 -9.589838 0
M  V30 61 H 11.034834 7.024576 -3.864837 0
M  V30 62 H 9.768028 5.818767 -4.413324 0
M  V30 63 H 10.355717 4.999724 -11.964036 0
M  V30 64 H 11.016741 10.792865 -6.309310 0
M  V30 65 H 8.597528 1.878801 -14.793608 0
M  V30 66 H 8.625421 2.191118 -13.059559 0
M  V30 67 H 7.144147 2.430706 -13.979302 0
M  V30 68 H 12.386197 8.598383 -11.054577 0
M  V30 69 H 9.549828 3.655689 -16.876339 0
M  V30 END ATOM
M  V30 BEGIN BOND
M  V30 1 1 10 1
M  V30 2 1 10 8
M  V30 3 2 11 2
M  V30 4 1 13 9
M  V30 5 1 14 5
M  V30 6 1 14 12
M  V30 7 1 16 4
M  V30 8 1 16 6
M  V30 9 1 16 7
M  V30 10 1 18 1
M  V30 11 2 20 2
M  V30 12 1 20 15
M  V30 13 1 21 8
M  V30 14 1 22 14
M  V30 15 1 22 17
M  V30 16 1 23 12
M  V30 17 1 24 18
M  V30 18 2 24 19
M  V30 19 2 25 6
M  V30 20 1 25 23
M  V30 21 2 26 10
M  V30 22 1 26 17
M  V30 23 1 26 19
M  V30 24 1 27 3
M  V30 25 1 28 9
M  V30 26 1 28 12
M  V30 27 1 28 13
M  V30 28 1 29 15
M  V30 29 1 30 6
M  V30 30 1 30 9
M  V30 31 1 31 5
M  V30 32 2 31 17
M  V30 33 1 32 5
M  V30 34 1 33 11
M  V30 35 2 33 30
M  V30 36 2 34 8
M  V30 37 1 34 31
M  V30 38 1 35 3
M  V30 39 1 35 4
M  V30 40 1 35 20
M  V30 41 1 35 27
M  V30 42 1 36 3
M  V30 43 1 37 3
M  V30 44 1 38 4
M  V30 45 1 39 4
M  V30 46 1 5 40 CFG=3
M  V30 47 1 9 41 CFG=3
M  V30 48 1 42 11
M  V30 49 1 12 43 CFG=3
M  V30 50 1 44 13
M  V30 51 1 45 13
M  V30 52 1 46 15
M  V30 53 1 47 15
M  V30 54 1 16 48 CFG=1
M  V30 55 1 49 18
M  V30 56 1 50 18
M  V30 57 1 51 19
M  V30 58 1 52 21
M  V30 59 1 53 21
M  V30 60 1 54 21
M  V30 61 1 55 22
M  V30 62 1 56 22
M  V30 63 1 57 23
M  V30 64 1 58 23
M  V30 65 1 59 24
M  V30 66 1 60 25
M  V30 67 1 61 27
M  V30 68 1 62 27
M  V30 69 1 28 63 CFG=1
M  V30 70 1 64 29
M  V30 71 1 65 32
M  V30 72 1 66 32
M  V30 73 1 67 32
M  V30 74 1 68 33
M  V30 75 1 69 34
M  V30 END BOND
M  V30 END CTAB
M  END
>  <i_epik_Tot_Q>  (1) 
0

>  <i_epik_Tot_abs_Q>  (1) 
0

>  <i_i_glide_confnum>  (1) 
13

>  <i_i_glide_lignum>  (1) 
114

>  <i_i_glide_posenum>  (1) 
174

>  <i_i_glide_rotatable_bonds>  (1) 
3

>  <i_lp_mmshare_version>  (1) 
72125

>  <i_m_source_file_index>  (1) 
57

>  <i_f3d_flags>  (1) 
0

>  <num_sample>  (1) 
100

>  <b_lp_Chiralities_Consistent>  (1) 
1

>  <r_epik_Charging_Adjusted_Penalty>  (1) 
1.2909634030870925

>  <r_epik_Ionization_Penalty>  (1) 
1.2909642397240775

>  <r_epik_Ionization_Penalty_Charging>  (1) 
0

>  <r_epik_Ionization_Penalty_Neutral>  (1) 
1.2909642397240775

>  <r_epik_State_Penalty>  (1) 
1.2909634030870925

>  <r_glide_ring_energy>  (1) 
1.6773318086129168

>  <r_i_docking_score>  (1) 
-4.3670326596022635

>  <r_i_glide_ecoul>  (1) 
0.058807160531439751

>  <r_i_glide_eff_state_penalty>  (1) 
1.2909634030870925

>  <r_i_glide_einternal>  (1) 
2.9211338917783753

>  <r_i_glide_emodel>  (1) 
-21.048437071255975

>  <r_i_glide_emodel_strain>  (1) 
4.9839096338461957

>  <r_i_glide_energy>  (1) 
-22.159154618621233

>  <r_i_glide_erotb>  (1) 
0.18175884728826419

>  <r_i_glide_esite>  (1) 
0

>  <r_i_glide_evdw>  (1) 
-22.217961779152674

>  <r_i_glide_gscore>  (1) 
-5.6579960626893557

>  <r_i_glide_gscore_strain>  (1) 
0.24597740846154892

>  <r_i_glide_hbond>  (1) 
0

>  <r_i_glide_ligand_efficiency>  (1) 
-0.12477236170292182

>  <r_i_glide_ligand_efficiency_ln>  (1) 
-0.95866058985060776

>  <r_i_glide_ligand_efficiency_sa>  (1) 
-0.40813866880909261

>  <r_i_glide_lipo>  (1) 
-3.7783088490433587

>  <r_i_glide_metal>  (1) 
-0

>  <r_i_glide_rewards>  (1) 
-1.2053464545178922

>  <r_lp_Energy>  (1) 
69.698508000000004

>  <s_epik_cmdline>  (1) 
J2VwaWtfcHl0aG9uJywgJy1waHQnLCAnMS4wJywgJy1waCcsICc3LjQnLCAnLXRuJywgJzgnLCAnLW1hJywgJzUwMCcsICctaW1hZScsICc8aW5maWxlLm1hZT4nLCAnLW9tYWUnLCAnPG91dGZpbGUubWFlPic=

>  <s_epik_input>  (1) 
TzFbQ0gyXVtDSF09W0NIXWMoYzEyKWMzYyhbY0hdYzJbQ0gzXSlbQ0BIXShbQ0gzXSlOKFtDSDJdMylbQ0BASF0oW0NIMl1bQ0hdNClbQ0BASF0oW0NIMl01KVtDQEhdNUMoXEM9NFtDQEhdKEYpW0NIMl1DNjdbQ0gyXVtDSDJdNyk9W0NIXVxbQ0hdPUM9QzZbQ0gyXVtPSF0=

>  <s_glide_docking_method>  (1) 
confgen

>  <s_i_glide_gridfile>  (1) 
gpcr_drd2_6luq_protein_autoprepared_prepared

>  <s_lp_Force_Field>  (1) 
S-OPLS

>  <s_lp_Variant>  (1) 
DiffSBDD_56_num_sample_100-3

>  <s_m_source_file>  (1) 
generated__ligand_DiffSBDD_2026-05-06_prepared.sdf

>  <GenAI_Model>  (1) 
DiffSBDD

>  <Protein>  (1) 
generic_title2

$$$$
DiffSBDD_44_num_sample_100
     RDKit          3D

  0  0  0  0  0  0  0  0  0  0999 V3000
M  V30 BEGIN CTAB
M  V30 COUNTS 56 58 0 0 1
M  V30 BEGIN ATOM
M  V30 1 C 9.480072 5.249687 -16.777201 0
M  V30 2 C 8.248999 4.346048 -17.032701 0 CFG=1
M  V30 3 C 10.336002 6.351718 -6.775708 0
M  V30 4 C 11.545195 8.793399 -6.055268 0
M  V30 5 C 11.127566 8.585181 -7.382002 0
M  V30 6 C 7.921360 4.276798 -12.190168 0
M  V30 7 C 7.035024 5.155425 -17.477196 0
M  V30 8 N 8.453403 3.533491 -18.273238 0 CFG=2 CHG=1
M  V30 9 C 9.229220 5.082177 -12.026469 0
M  V30 10 C 9.434856 6.126500 -9.644471 0
M  V30 11 O 9.166508 5.096434 -9.031511 0
M  V30 12 C 11.365301 7.787053 -5.092734 0
M  V30 13 N 12.143716 9.995537 -5.696724 0
M  V30 14 C 6.346717 4.658987 -18.726374 0
M  V30 15 N 10.076559 7.194542 -9.147064 0
M  V30 16 C 7.929741 3.262287 -13.342893 0
M  V30 17 O 7.169711 2.473278 -15.936223 0
M  V30 18 C 9.891760 7.551867 -11.449174 0
M  V30 19 C 7.164230 3.391338 -19.006652 0
M  V30 20 N 8.234704 3.949722 -14.594950 0
M  V30 21 C 9.252159 2.286249 -18.165249 0
M  V30 22 C 9.041531 6.298017 -11.097566 0 CFG=1
M  V30 23 C 10.287854 8.247357 -10.115763 0
M  V30 24 C 10.515127 7.365225 -7.758252 0
M  V30 25 C 7.833763 3.500302 -15.795249 0
M  V30 26 C 10.764816 6.570185 -5.451931 0
M  V30 27 O 6.642971 6.147374 -16.863481 0
M  V30 28 H 9.319592 5.931307 -15.941926 0
M  V30 29 H 10.366905 4.657714 -16.545986 0
M  V30 30 H 9.714382 5.864312 -17.647782 0
M  V30 31 H 9.878906 5.416403 -7.015704 0
M  V30 32 H 11.273574 9.366164 -8.110117 0
M  V30 33 H 7.696081 3.769301 -11.253614 0
M  V30 34 H 7.091110 4.964478 -12.361816 0
M  V30 35 H 9.570598 5.450403 -12.993426 0
M  V30 36 H 10.023835 4.427156 -11.667836 0
M  V30 37 H 11.691285 7.946568 -4.075394 0
M  V30 38 H 12.579520 10.103158 -4.792818 0
M  V30 39 H 12.409256 10.666645 -6.401814 0
M  V30 40 H 5.287144 4.456845 -18.576561 0
M  V30 41 H 6.460194 5.397138 -19.520487 0
M  V30 42 H 8.670002 2.483153 -13.151954 0
M  V30 43 H 6.956401 2.768561 -13.391353 0
M  V30 44 H 10.797333 7.254011 -11.979443 0
M  V30 45 H 9.352566 8.233620 -12.107625 0
M  V30 46 H 6.621921 2.517765 -18.638969 0
M  V30 47 H 7.334021 3.248458 -20.074721 0
M  V30 48 H 8.776698 4.800112 -14.543227 0
M  V30 49 H 8.697013 1.473555 -17.696217 0
M  V30 50 H 9.545844 1.948460 -19.159545 0
M  V30 51 H 10.163687 2.454809 -17.591420 0
M  V30 52 H 7.993992 6.600941 -11.091699 0
M  V30 53 H 9.611453 9.071953 -9.891463 0
M  V30 54 H 11.318932 8.599466 -10.151323 0
M  V30 55 H 10.629527 5.798286 -4.708693 0
M  V30 56 H 9.001560 4.143528 -18.862567 0
M  V30 END ATOM
M  V30 BEGIN BOND
M  V30 1 1 2 1 CFG=1
M  V30 2 2 5 4
M  V30 3 1 7 2
M  V30 4 1 8 2
M  V30 5 1 9 6
M  V30 6 2 11 10
M  V30 7 1 12 4
M  V30 8 1 13 4
M  V30 9 1 14 7
M  V30 10 1 15 10
M  V30 11 1 16 6
M  V30 12 1 19 8
M  V30 13 1 19 14
M  V30 14 1 20 16
M  V30 15 1 21 8
M  V30 16 1 22 9
M  V30 17 1 22 10
M  V30 18 1 22 18
M  V30 19 1 23 15
M  V30 20 1 23 18
M  V30 21 2 24 3
M  V30 22 1 24 5
M  V30 23 1 24 15
M  V30 24 1 25 2
M  V30 25 2 25 17
M  V30 26 1 25 20
M  V30 27 1 26 3
M  V30 28 2 26 12
M  V30 29 2 27 7
M  V30 30 1 28 1
M  V30 31 1 29 1
M  V30 32 1 30 1
M  V30 33 1 31 3
M  V30 34 1 32 5
M  V30 35 1 33 6
M  V30 36 1 34 6
M  V30 37 1 35 9
M  V30 38 1 36 9
M  V30 39 1 37 12
M  V30 40 1 38 13
M  V30 41 1 39 13
M  V30 42 1 40 14
M  V30 43 1 41 14
M  V30 44 1 42 16
M  V30 45 1 43 16
M  V30 46 1 44 18
M  V30 47 1 45 18
M  V30 48 1 46 19
M  V30 49 1 47 19
M  V30 50 1 48 20
M  V30 51 1 49 21
M  V30 52 1 50 21
M  V30 53 1 51 21
M  V30 54 1 22 52 CFG=1
M  V30 55 1 53 23
M  V30 56 1 54 23
M  V30 57 1 55 26
M  V30 58 1 8 56 CFG=3
M  V30 END BOND
M  V30 END CTAB
M  END
>  <i_epik_Tot_Q>  (1) 
1

>  <i_epik_Tot_abs_Q>  (1) 
1

>  <i_i_glide_confnum>  (1) 
58

>  <i_i_glide_lignum>  (1) 
78

>  <i_i_glide_posenum>  (1) 
102

>  <i_i_glide_rotatable_bonds>  (1) 
7

>  <i_lp_mmshare_version>  (1) 
72125

>  <i_m_source_file_index>  (1) 
45

>  <i_f3d_flags>  (1) 
0

>  <num_sample>  (1) 
100

>  <b_lp_Chiralities_Consistent>  (1) 
1

>  <r_epik_Charging_Adjusted_Penalty>  (1) 
0.87787264938008924

>  <r_epik_Ionization_Penalty>  (1) 
0.44040452980928141

>  <r_epik_Ionization_Penalty_Charging>  (1) 
0.43893632469004462

>  <r_epik_Ionization_Penalty_Neutral>  (1) 
0.0014682051192367804

>  <r_epik_State_Penalty>  (1) 
0.43893632469004457

>  <r_glide_ring_energy>  (1) 
0

>  <r_i_docking_score>  (1) 
-4.3615599916969048

>  <r_i_glide_ecoul>  (1) 
-1.7032696947999015

>  <r_i_glide_eff_state_penalty>  (1) 
0.43893632469004457

>  <r_i_glide_einternal>  (1) 
10.024539888751764

>  <r_i_glide_emodel>  (1) 
-37.471980383474452

>  <r_i_glide_emodel_strain>  (1) 
1.5845955753154328

>  <r_i_glide_energy>  (1) 
-34.672018103983007

>  <r_i_glide_erotb>  (1) 
0.96983297192060391

>  <r_i_glide_esite>  (1) 
-0.1579490049587903

>  <r_i_glide_evdw>  (1) 
-32.968748409183107

>  <r_i_glide_gscore>  (1) 
-4.8004963163869494

>  <r_i_glide_gscore_strain>  (1) 
0

>  <r_i_glide_hbond>  (1) 
0

>  <r_i_glide_ligand_efficiency>  (1) 
-0.16153925895173721

>  <r_i_glide_ligand_efficiency_ln>  (1) 
-1.0152992601308222

>  <r_i_glide_ligand_efficiency_sa>  (1) 
-0.48461777685521173

>  <r_i_glide_lipo>  (1) 
-1.8395488908471149

>  <r_i_glide_metal>  (1) 
-0

>  <r_i_glide_rewards>  (1) 
-1.8689035178225069

>  <r_lp_Energy>  (1) 
34.183026999999996

>  <r_lp_tautomer_probability>  (1) 
0.99995000000000001

>  <s_epik_cmdline>  (1) 
J2VwaWtfcHl0aG9uJywgJy1waHQnLCAnMS4wJywgJy1waCcsICc3LjQnLCAnLXRuJywgJzgnLCAnLW1hJywgJzUwMCcsICctaW1hZScsICc8aW5maWxlLm1hZT4nLCAnLW9tYWUnLCAnPG91dGZpbGUubWFlPic=

>  <s_epik_input>  (1) 
W0NIM11OMVtDSDJdW0NIMl1DKD1PKVtDQEBdMShbQ0gzXSlDKD1PKVtOSF1bQ0gyXVtDSDJdW0NIMl1bQ0BASF0yW0NIMl1bQ0gyXU4oQzI9TyljKFtjSF1bY0hdW2NIXTMpW2NIXWMzW05IMl0=

>  <s_glide_docking_method>  (1) 
confgen

>  <s_i_glide_gridfile>  (1) 
gpcr_drd2_6luq_protein_autoprepared_prepared

>  <s_lp_Force_Field>  (1) 
S-OPLS

>  <s_lp_Variant>  (1) 
DiffSBDD_44_num_sample_100-3

>  <s_m_source_file>  (1) 
generated__ligand_DiffSBDD_2026-05-06_prepared.sdf

>  <GenAI_Model>  (1) 
DiffSBDD

>  <Protein>  (1) 
generic_title2

$$$$
DiffSBDD_61_num_sample_100
     RDKit          3D

  0  0  0  0  0  0  0  0  0  0999 V3000
M  V30 BEGIN CTAB
M  V30 COUNTS 52 54 0 0 1
M  V30 BEGIN ATOM
M  V30 1 N 11.107783 8.440547 -6.074241 0 CFG=2 CHG=1
M  V30 2 C 7.044369 2.708469 -13.943985 0
M  V30 3 C 7.365133 4.149349 -13.488975 0 CFG=1
M  V30 4 O 12.621029 8.518772 -2.720680 0
M  V30 5 C 12.262112 7.169106 -2.841195 0
M  V30 6 O 8.704674 4.462369 -13.826552 0
M  V30 7 C 9.056957 5.837096 -9.900915 0
M  V30 8 O 5.713535 6.417340 -16.091147 0
M  V30 9 C 10.306873 6.559498 -9.364813 0
M  V30 10 C 7.156923 5.810587 -11.630255 0 CFG=1
M  V30 11 C 9.886635 7.651666 -6.317908 0
M  V30 12 C 6.406605 5.179478 -14.123875 0 CFG=2
M  V30 13 C 6.670063 5.490548 -15.613499 0
M  V30 14 C 9.210742 8.072955 -7.612478 0
M  V30 15 C 7.210034 4.308317 -11.966136 0
M  V30 16 C 10.130183 8.000106 -8.844654 0 CFG=1
M  V30 17 O 6.019749 2.174587 -13.469210 0 CHG=-1
M  V30 18 C 12.079359 8.250263 -7.181443 0
M  V30 19 C 8.515186 6.414642 -11.220819 0
M  V30 20 C 11.497827 8.658952 -8.546410 0
M  V30 21 C 12.230253 9.112383 -3.900002 0
M  V30 22 C 11.669460 8.177752 -4.691809 0
M  V30 23 C 11.673299 6.927892 -4.055701 0
M  V30 24 S 6.483584 6.667354 -13.085306 0
M  V30 25 O 7.835994 2.177562 -14.753663 0
M  V30 26 H 12.501231 6.549699 -1.988752 0
M  V30 27 H 9.169890 3.637045 -13.808036 0
M  V30 28 H 8.263201 5.805612 -9.157275 0
M  V30 29 H 9.333930 4.795376 -10.058239 0
M  V30 30 H 5.728807 7.164790 -15.510761 0
M  V30 31 H 10.742133 5.942584 -8.580201 0
M  V30 32 H 11.032881 6.573032 -10.171715 0
M  V30 33 H 6.455671 5.965368 -10.809607 0
M  V30 34 H 10.113088 6.584209 -6.346580 0
M  V30 35 H 9.198363 7.803742 -5.493012 0
M  V30 36 H 5.387181 4.801450 -14.026499 0
M  V30 37 H 6.629001 4.581928 -16.215470 0
M  V30 38 H 7.666040 5.912386 -15.754400 0
M  V30 39 H 8.784918 9.070979 -7.511989 0
M  V30 40 H 8.383647 7.386042 -7.728071 0
M  V30 41 H 7.992260 3.772013 -11.432542 0
M  V30 42 H 6.268586 3.868472 -11.634000 0
M  V30 43 H 9.658847 8.579967 -9.638877 0
M  V30 44 H 12.367844 7.199721 -7.212358 0
M  V30 45 H 12.976054 8.844472 -6.998764 0
M  V30 46 H 9.250881 6.292996 -12.014966 0
M  V30 47 H 8.378131 7.489520 -11.111872 0
M  V30 48 H 12.209923 8.403756 -9.332745 0
M  V30 49 H 11.433707 9.743216 -8.587218 0
M  V30 50 H 12.425287 10.169301 -3.988687 0
M  V30 51 H 11.299569 5.980678 -4.418591 0
M  V30 52 H 10.818163 9.407063 -6.125509 0
M  V30 END ATOM
M  V30 BEGIN BOND
M  V30 1 1 3 2
M  V30 2 1 5 4
M  V30 3 1 3 6 CFG=1
M  V30 4 1 9 7
M  V30 5 1 11 1
M  V30 6 1 12 3
M  V30 7 1 13 8
M  V30 8 1 13 12
M  V30 9 1 14 11
M  V30 10 1 15 3
M  V30 11 1 15 10
M  V30 12 1 16 9
M  V30 13 1 16 14
M  V30 14 1 17 2
M  V30 15 1 18 1
M  V30 16 1 19 7
M  V30 17 1 19 10
M  V30 18 1 20 16
M  V30 19 1 20 18
M  V30 20 1 21 4
M  V30 21 1 22 1
M  V30 22 2 22 21
M  V30 23 2 23 5
M  V30 24 1 23 22
M  V30 25 1 24 10
M  V30 26 1 24 12
M  V30 27 2 25 2
M  V30 28 1 26 5
M  V30 29 1 27 6
M  V30 30 1 28 7
M  V30 31 1 29 7
M  V30 32 1 30 8
M  V30 33 1 31 9
M  V30 34 1 32 9
M  V30 35 1 10 33 CFG=1
M  V30 36 1 34 11
M  V30 37 1 35 11
M  V30 38 1 12 36 CFG=3
M  V30 39 1 37 13
M  V30 40 1 38 13
M  V30 41 1 39 14
M  V30 42 1 40 14
M  V30 43 1 41 15
M  V30 44 1 42 15
M  V30 45 1 16 43 CFG=3
M  V30 46 1 44 18
M  V30 47 1 45 18
M  V30 48 1 46 19
M  V30 49 1 47 19
M  V30 50 1 48 20
M  V30 51 1 49 20
M  V30 52 1 50 21
M  V30 53 1 51 23
M  V30 54 1 1 52 CFG=1
M  V30 END BOND
M  V30 END CTAB
M  END
>  <i_epik_Tot_Q>  (1) 
0

>  <i_epik_Tot_abs_Q>  (1) 
2

>  <i_i_glide_confnum>  (1) 
290

>  <i_i_glide_lignum>  (1) 
122

>  <i_i_glide_posenum>  (1) 
208

>  <i_i_glide_rotatable_bonds>  (1) 
9

>  <i_lp_mmshare_version>  (1) 
72125

>  <i_m_source_file_index>  (1) 
62

>  <i_f3d_flags>  (1) 
0

>  <num_sample>  (1) 
100

>  <b_lp_Chiralities_Consistent>  (1) 
1

>  <r_epik_Charging_Adjusted_Penalty>  (1) 
0.30587031255842323

>  <r_epik_Ionization_Penalty>  (1) 
0.15296771237530521

>  <r_epik_Ionization_Penalty_Charging>  (1) 
0.15296734445016963

>  <r_epik_Ionization_Penalty_Neutral>  (1) 
3.6792513557102453e-07

>  <r_epik_State_Penalty>  (1) 
0.15290296810825357

>  <r_glide_ring_energy>  (1) 
0

>  <r_i_docking_score>  (1) 
-4.3613756872960669

>  <r_i_glide_ecoul>  (1) 
0.30947726617296439

>  <r_i_glide_eff_state_penalty>  (1) 
0.15290296810825357

>  <r_i_glide_einternal>  (1) 
5.2158436933238157

>  <r_i_glide_emodel>  (1) 
-33.957003324203804

>  <r_i_glide_emodel_strain>  (1) 
0.73891078844125246

>  <r_i_glide_energy>  (1) 
-28.986282449042282

>  <r_i_glide_erotb>  (1) 
0.84742595842419921

>  <r_i_glide_esite>  (1) 
0

>  <r_i_glide_evdw>  (1) 
-29.295759715215247

>  <r_i_glide_gscore>  (1) 
-4.5142786554043202

>  <r_i_glide_gscore_strain>  (1) 
0

>  <r_i_glide_hbond>  (1) 
0

>  <r_i_glide_ligand_efficiency>  (1) 
-0.17445502749184269

>  <r_i_glide_ligand_efficiency_ln>  (1) 
-1.0337767377716829

>  <r_i_glide_ligand_efficiency_sa>  (1) 
-0.51010959490656127

>  <r_i_glide_lipo>  (1) 
-1.9398560545730605

>  <r_i_glide_metal>  (1) 
-0

>  <r_i_glide_rewards>  (1) 
-2.0034821634206406

>  <r_lp_Energy>  (1) 
19.922726999999998

>  <s_epik_cmdline>  (1) 
J2VwaWtfcHl0aG9uJywgJy1waHQnLCAnMS4wJywgJy1waCcsICc3LjQnLCAnLXRuJywgJzgnLCAnLW1hJywgJzUwMCcsICctaW1hZScsICc8aW5maWxlLm1hZT4nLCAnLW9tYWUnLCAnPG91dGZpbGUubWFlPic=

>  <s_epik_input>  (1) 
W2NIXTFbY0hdb1tjSF1jMU4yW0NIMl1bQ0gyXVtDSF0oW0NIMl1bQ0gyXTIpW0NIMl1bQ0gyXVtDSDJdW0NASF0oW0NIMl0zKVNbQ0BASF0oW0NIMl1bT0hdKVtDQF0zKFtPSF0pQyg9TylbT0hd

>  <s_glide_docking_method>  (1) 
confgen

>  <s_i_glide_gridfile>  (1) 
gpcr_drd2_6luq_protein_autoprepared_prepared

>  <s_lp_Force_Field>  (1) 
S-OPLS

>  <s_lp_Variant>  (1) 
DiffSBDD_61_num_sample_100-2

>  <s_m_source_file>  (1) 
generated__ligand_DiffSBDD_2026-05-06_prepared.sdf

>  <GenAI_Model>  (1) 
DiffSBDD

>  <Protein>  (1) 
generic_title2

$$$$
DiffSBDD_49_num_sample_100
     RDKit          3D

  0  0  0  0  0  0  0  0  0  0999 V3000
M  V30 BEGIN CTAB
M  V30 COUNTS 52 55 0 0 1
M  V30 BEGIN ATOM
M  V30 1 N 9.552075 5.870487 -11.402558 0
M  V30 2 C 10.360498 7.748708 -7.606573 0
M  V30 3 C 12.404381 8.535133 -8.678312 0
M  V30 4 C 5.534232 5.663097 -12.223864 0
M  V30 5 C 7.757064 0.220970 -14.876467 0
M  V30 6 S 8.639230 8.333120 -11.891666 0
M  V30 7 C 9.834885 7.398380 -8.864645 0
M  V30 8 C 7.564849 2.319895 -13.492682 0 CFG=1
M  V30 9 C 10.020608 7.239658 -11.403295 0 CFG=1
M  V30 10 C 6.252784 7.016951 -12.374468 0
M  V30 11 C 7.684606 3.853672 -13.476119 0
M  V30 12 C 8.433265 5.765968 -11.976501 0
M  V30 13 C 6.462588 -0.343320 -14.258754 0 CFG=2
M  V30 14 O 5.434237 -1.048178 -16.361606 0
M  V30 15 C 7.671286 4.464170 -12.051534 0 CFG=1
M  V30 16 C 5.253267 -0.246907 -15.214752 0
M  V30 17 C 10.591687 7.619482 -10.035982 0
M  V30 18 C 6.234413 1.805989 -12.911995 0
M  V30 19 C 11.644013 8.318481 -7.513187 0
M  V30 20 C 7.772782 6.945608 -12.623323 0 CFG=2
M  V30 21 C 7.731244 1.755767 -14.915185 0
M  V30 22 N 6.325080 4.663319 -11.517320 0
M  V30 23 C 6.185275 0.277897 -12.883419 0
M  V30 24 C 11.880951 8.186277 -9.937590 0
M  V30 25 H 8.177250 3.769365 -11.380099 0
M  V30 26 H 9.777514 7.578987 -6.713455 0
M  V30 27 H 13.390344 8.969140 -8.606875 0
M  V30 28 H 4.634866 5.814217 -11.630389 0
M  V30 29 H 5.225958 5.279384 -13.196028 0
M  V30 30 H 8.609704 -0.108551 -14.280794 0
M  V30 31 H 7.921722 -0.183869 -15.874913 0
M  V30 32 H 8.850848 6.959271 -8.932297 0
M  V30 33 H 8.377626 1.926681 -12.879134 0
M  V30 34 H 10.802662 7.337060 -12.158164 0
M  V30 35 H 6.056903 7.611922 -11.491667 0
M  V30 36 H 5.779581 7.574789 -13.181858 0
M  V30 37 H 8.641628 4.094724 -13.942705 0
M  V30 38 H 6.937122 4.306476 -14.126407 0
M  V30 39 H 6.634832 -1.386247 -14.021989 0
M  V30 40 H 6.310230 -0.914430 -16.688641 0
M  V30 41 H 5.095898 0.771092 -15.551154 0
M  V30 42 H 4.337237 -0.564008 -14.717660 0
M  V30 43 H 6.099263 2.146573 -11.891820 0
M  V30 44 H 5.397315 2.199390 -13.490067 0
M  V30 45 H 12.045964 8.587526 -6.547882 0
M  V30 46 H 8.634834 2.127200 -15.386292 0
M  V30 47 H 6.920835 2.107311 -15.553069 0
M  V30 48 H 5.223744 -0.067903 -12.501718 0
M  V30 49 H 6.931545 -0.082497 -12.175129 0
M  V30 50 H 12.468157 8.354072 -10.826594 0
M  V30 51 H 5.826423 3.788763 -11.462401 0
M  V30 52 H 7.981102 6.905802 -13.692447 0
M  V30 END ATOM
M  V30 BEGIN BOND
M  V30 1 1 7 2
M  V30 2 1 9 1
M  V30 3 1 9 6
M  V30 4 1 10 4
M  V30 5 1 11 8
M  V30 6 2 12 1
M  V30 7 1 13 5
M  V30 8 1 15 11
M  V30 9 1 15 12
M  V30 10 1 16 13
M  V30 11 1 16 14
M  V30 12 2 17 7
M  V30 13 1 17 9
M  V30 14 1 18 8
M  V30 15 2 19 2
M  V30 16 1 19 3
M  V30 17 1 20 6
M  V30 18 1 20 10
M  V30 19 1 20 12
M  V30 20 1 21 5
M  V30 21 1 21 8
M  V30 22 1 22 4
M  V30 23 1 22 15
M  V30 24 1 23 13
M  V30 25 1 23 18
M  V30 26 2 24 3
M  V30 27 1 24 17
M  V30 28 1 15 25 CFG=1
M  V30 29 1 26 2
M  V30 30 1 27 3
M  V30 31 1 28 4
M  V30 32 1 29 4
M  V30 33 1 30 5
M  V30 34 1 31 5
M  V30 35 1 32 7
M  V30 36 1 8 33 CFG=1
M  V30 37 1 9 34 CFG=3
M  V30 38 1 35 10
M  V30 39 1 36 10
M  V30 40 1 37 11
M  V30 41 1 38 11
M  V30 42 1 13 39 CFG=1
M  V30 43 1 40 14
M  V30 44 1 41 16
M  V30 45 1 42 16
M  V30 46 1 43 18
M  V30 47 1 44 18
M  V30 48 1 45 19
M  V30 49 1 46 21
M  V30 50 1 47 21
M  V30 51 1 48 23
M  V30 52 1 49 23
M  V30 53 1 50 24
M  V30 54 1 51 22
M  V30 55 1 20 52 CFG=3
M  V30 END BOND
M  V30 END CTAB
M  END
>  <i_epik_Tot_Q>  (1) 
0

>  <i_epik_Tot_abs_Q>  (1) 
0

>  <i_i_glide_confnum>  (1) 
59

>  <i_i_glide_lignum>  (1) 
92

>  <i_i_glide_posenum>  (1) 
348

>  <i_i_glide_rotatable_bonds>  (1) 
5

>  <i_lp_mmshare_version>  (1) 
72125

>  <i_m_source_file_index>  (1) 
50

>  <i_f3d_flags>  (1) 
0

>  <num_sample>  (1) 
100

>  <b_lp_Chiralities_Consistent>  (1) 
1

>  <r_epik_Charging_Adjusted_Penalty>  (1) 
0.1447540794995397

>  <r_epik_Ionization_Penalty>  (1) 
0.14481163516182699

>  <r_epik_Ionization_Penalty_Charging>  (1) 
0

>  <r_epik_Ionization_Penalty_Neutral>  (1) 
0.14481163516182699

>  <r_epik_State_Penalty>  (1) 
0.1447540794995397

>  <r_glide_ring_energy>  (1) 
0.012110018449817897

>  <r_i_docking_score>  (1) 
-4.3452762719102296

>  <r_i_glide_ecoul>  (1) 
0.63797879729296114

>  <r_i_glide_eff_state_penalty>  (1) 
0.1447540794995397

>  <r_i_glide_einternal>  (1) 
1.7698057898272967

>  <r_i_glide_emodel>  (1) 
-35.067022101023859

>  <r_i_glide_emodel_strain>  (1) 
0.88448174387219325

>  <r_i_glide_energy>  (1) 
-32.245069345001554

>  <r_i_glide_erotb>  (1) 
0.63990235469448886

>  <r_i_glide_esite>  (1) 
-0.021356561353012771

>  <r_i_glide_evdw>  (1) 
-32.883048142294513

>  <r_i_glide_gscore>  (1) 
-4.4900303514097697

>  <r_i_glide_gscore_strain>  (1) 
0

>  <r_i_glide_hbond>  (1) 
0

>  <r_i_glide_ligand_efficiency>  (1) 
-0.18105317799625956

>  <r_i_glide_ligand_efficiency_ln>  (1) 
-1.0400240036036965

>  <r_i_glide_ligand_efficiency_sa>  (1) 
-0.52224773633579213

>  <r_i_glide_lipo>  (1) 
-1.6000498299577361

>  <r_i_glide_metal>  (1) 
-0

>  <r_i_glide_rewards>  (1) 
-1.9600707272727278

>  <r_lp_Energy>  (1) 
25.428964000000001

>  <r_lp_tautomer_probability>  (1) 
0.99998399999999998

>  <s_epik_Chemistry_Notes>  (1) 
This compound has an imine and may undergo hydrolysis. This compound contains an acetal/aminal-like group ( X-CH(R)-Y where X, Y are N, S, or O) that may be acid/base labile, releasing an aldehyde.

>  <s_epik_cmdline>  (1) 
J2VwaWtfcHl0aG9uJywgJy1waHQnLCAnMS4wJywgJy1waCcsICc3LjQnLCAnLXRuJywgJzgnLCAnLW1hJywgJzUwMCcsICctaW1hZScsICc8aW5maWxlLm1hZT4nLCAnLW9tYWUnLCAnPG91dGZpbGUubWFlPic=

>  <s_epik_input>  (1) 
W2NIXTFbY0hdW2NIXVtjSF1bY0hdYzFbQ0BASF0oW05IXTIpU1tDQEBIXShbQ0BIXTIzKVtDSDJdW0NIMl1OPUMzW0NIMl1bQ0BIXTRbQ0gyXVtDSDJdW0NASF0oW0NIMl1bQ0gyXTQpW0NIMl1bT0hd

>  <s_glide_docking_method>  (1) 
confgen

>  <s_i_glide_gridfile>  (1) 
gpcr_drd2_6luq_protein_autoprepared_prepared

>  <s_lp_Force_Field>  (1) 
S-OPLS

>  <s_lp_Variant>  (1) 
DiffSBDD_49_num_sample_100-2

>  <s_m_source_file>  (1) 
generated__ligand_DiffSBDD_2026-05-06_prepared.sdf

>  <GenAI_Model>  (1) 
DiffSBDD

>  <Protein>  (1) 
generic_title2

$$$$
DiffSBDD_69_num_sample_100
     RDKit          3D

  0  0  0  0  0  0  0  0  0  0999 V3000
M  V30 BEGIN CTAB
M  V30 COUNTS 57 59 0 0 1
M  V30 BEGIN ATOM
M  V30 1 C 12.247424 8.431656 -10.118100 0
M  V30 2 C 6.234222 6.040336 -16.722900 0
M  V30 3 C 11.941309 8.447484 -7.109876 0
M  V30 4 C 6.994995 1.244532 -14.055141 0 CFG=2
M  V30 5 N 8.557178 6.063118 -11.091765 0
M  V30 6 O 10.149060 7.292472 -10.194551 0
M  V30 7 O 5.557668 0.107581 -15.579583 0
M  V30 8 N 7.427052 4.597142 -12.643937 0
M  V30 9 C 6.352681 5.234085 -11.886495 0 CFG=1
M  V30 10 C 7.695365 4.964761 -18.281460 0
M  V30 11 C 10.764758 8.110289 -8.024424 0
M  V30 12 C 6.733329 5.935403 -17.953822 0
M  V30 13 C 6.637682 0.663901 -15.410785 0
M  V30 14 C 5.267611 7.491389 -17.955298 0
M  V30 15 O 5.324212 7.009218 -16.580044 0
M  V30 16 C 11.260842 7.533094 -9.357257 0 CFG=2
M  V30 17 O 6.233384 6.819415 -18.823781 0
M  V30 18 C 8.131929 4.069762 -17.274217 0
M  V30 19 F 7.524534 0.763118 -16.416124 0
M  V30 20 C 7.591956 4.170053 -15.964656 0
M  V30 21 C 6.634832 5.184413 -15.686665 0
M  V30 22 C 11.614286 8.604801 -5.625185 0 CFG=1
M  V30 23 O 9.572643 5.369637 -9.120342 0
M  V30 24 O 10.634884 9.600347 -5.490623 0
M  V30 25 O 5.434838 4.302354 -11.365406 0
M  V30 26 C 7.038722 2.787881 -14.040557 0 CFG=1
M  V30 27 C 9.434833 6.169319 -10.049078 0
M  V30 28 O 7.286496 3.155225 -12.691638 0
M  V30 29 O 8.234823 0.731590 -13.607846 0
M  V30 30 C 11.160022 7.288842 -4.973926 0
M  V30 31 C 7.689151 4.973923 -11.271448 0 CFG=2
M  V30 32 O 8.001550 3.285965 -14.984155 0
M  V30 33 H 13.183364 8.556176 -9.573300 0
M  V30 34 H 11.834835 9.422428 -10.291674 0
M  V30 35 H 12.497940 7.997128 -11.085487 0
M  V30 36 H 12.634889 7.622909 -7.215953 0
M  V30 37 H 12.448115 9.343684 -7.468352 0
M  V30 38 H 6.238613 0.914805 -13.340847 0
M  V30 39 H 8.560227 6.809559 -11.769076 0
M  V30 40 H 6.017963 6.256520 -12.056103 0
M  V30 41 H 8.088853 4.897152 -19.284923 0
M  V30 42 H 10.125337 7.373081 -7.540297 0
M  V30 43 H 10.127279 8.969433 -8.199594 0
M  V30 44 H 4.264332 7.305804 -18.341735 0
M  V30 45 H 5.434820 8.567531 -17.966285 0
M  V30 46 H 11.767914 6.590065 -9.157067 0
M  V30 47 H 8.864542 3.309065 -17.502875 0
M  V30 48 H 6.206398 5.290164 -14.705437 0
M  V30 49 H 12.505915 8.969326 -5.110288 0
M  V30 50 H 9.868231 9.320797 -5.969225 0
M  V30 51 H 5.377113 4.445405 -10.430551 0
M  V30 52 H 6.034055 3.129562 -14.284026 0
M  V30 53 H 8.506676 1.241848 -12.856300 0
M  V30 54 H 11.834861 6.469052 -5.220276 0
M  V30 55 H 10.158158 6.994400 -5.289064 0
M  V30 56 H 11.160271 7.369251 -3.891394 0
M  V30 57 H 7.760945 4.169304 -10.541116 0
M  V30 END ATOM
M  V30 BEGIN BOND
M  V30 1 1 9 8
M  V30 2 1 11 3
M  V30 3 2 12 2
M  V30 4 1 12 10
M  V30 5 1 13 4
M  V30 6 2 13 7
M  V30 7 1 15 2
M  V30 8 1 15 14
M  V30 9 1 16 1
M  V30 10 1 16 6
M  V30 11 1 16 11
M  V30 12 1 17 12
M  V30 13 1 17 14
M  V30 14 2 18 10
M  V30 15 1 19 13
M  V30 16 1 20 18
M  V30 17 1 21 2
M  V30 18 2 21 20
M  V30 19 1 22 3
M  V30 20 1 24 22
M  V30 21 1 25 9
M  V30 22 1 26 4
M  V30 23 1 27 5
M  V30 24 1 27 6
M  V30 25 2 27 23
M  V30 26 1 28 8
M  V30 27 1 28 26
M  V30 28 1 29 4
M  V30 29 1 30 22
M  V30 30 1 31 5
M  V30 31 1 31 8
M  V30 32 1 31 9
M  V30 33 1 32 20
M  V30 34 1 32 26
M  V30 35 1 33 1
M  V30 36 1 34 1
M  V30 37 1 35 1
M  V30 38 1 36 3
M  V30 39 1 37 3
M  V30 40 1 4 38 CFG=1
M  V30 41 1 39 5
M  V30 42 1 9 40 CFG=3
M  V30 43 1 41 10
M  V30 44 1 42 11
M  V30 45 1 43 11
M  V30 46 1 44 14
M  V30 47 1 45 14
M  V30 48 1 16 46 CFG=1
M  V30 49 1 47 18
M  V30 50 1 48 21
M  V30 51 1 22 49 CFG=1
M  V30 52 1 50 24
M  V30 53 1 51 25
M  V30 54 1 26 52 CFG=3
M  V30 55 1 53 29
M  V30 56 1 54 30
M  V30 57 1 55 30
M  V30 58 1 56 30
M  V30 59 1 31 57 CFG=1
M  V30 END BOND
M  V30 END CTAB
M  END
>  <i_epik_Tot_Q>  (1) 
0

>  <i_epik_Tot_abs_Q>  (1) 
0

>  <i_i_glide_confnum>  (1) 
1678

>  <i_i_glide_lignum>  (1) 
140

>  <i_i_glide_posenum>  (1) 
55

>  <i_i_glide_rotatable_bonds>  (1) 
16

>  <i_lp_mmshare_version>  (1) 
72125

>  <i_m_source_file_index>  (1) 
70

>  <i_f3d_flags>  (1) 
0

>  <num_sample>  (1) 
100

>  <b_lp_Chiralities_Consistent>  (1) 
1

>  <r_epik_Charging_Adjusted_Penalty>  (1) 
0.44341445758704578

>  <r_epik_Ionization_Penalty>  (1) 
0.44344869696236644

>  <r_epik_Ionization_Penalty_Charging>  (1) 
0

>  <r_epik_Ionization_Penalty_Neutral>  (1) 
0.44344869696236644

>  <r_epik_State_Penalty>  (1) 
0.44341445758704578

>  <r_glide_ring_energy>  (1) 
0

>  <r_i_docking_score>  (1) 
-4.3382705122726097

>  <r_i_glide_ecoul>  (1) 
-3.3898657016279161

>  <r_i_glide_eff_state_penalty>  (1) 
0.44341445758704578

>  <r_i_glide_einternal>  (1) 
21.137576760129893

>  <r_i_glide_emodel>  (1) 
-42.398291425365692

>  <r_i_glide_emodel_strain>  (1) 
1.338665000083239

>  <r_i_glide_energy>  (1) 
-41.171457503250409

>  <r_i_glide_erotb>  (1) 
1.0444707678755103

>  <r_i_glide_esite>  (1) 
-0.19399797334846816

>  <r_i_glide_evdw>  (1) 
-37.78159180162249

>  <r_i_glide_gscore>  (1) 
-4.7816849698596551

>  <r_i_glide_gscore_strain>  (1) 
0

>  <r_i_glide_hbond>  (1) 
0

>  <r_i_glide_ligand_efficiency>  (1) 
-0.13557095350851905

>  <r_i_glide_ligand_efficiency_ln>  (1) 
-0.97145702448566096

>  <r_i_glide_ligand_efficiency_sa>  (1) 
-0.43041094843151007

>  <r_i_glide_lipo>  (1) 
-1.9558056743875634

>  <r_i_glide_metal>  (1) 
-0

>  <r_i_glide_rewards>  (1) 
-1.2787926446738216

>  <r_lp_Energy>  (1) 
34.780937000000002

>  <r_lp_tautomer_probability>  (1) 
1

>  <s_epik_Chemistry_Notes>  (1) 
This compound has an ester and may undergo hydrolysis at high or low pH. This compound contains an acetal/aminal-like group ( X-CH(R)-Y where X, Y are N, S, or O) that may be acid/base labile, releasing an aldehyde. This compound has a N-S or N-O group and may undergo hydrolysis at high or low pH.

>  <s_epik_cmdline>  (1) 
J2VwaWtfcHl0aG9uJywgJy1waHQnLCAnMS4wJywgJy1waCcsICc3LjQnLCAnLXRuJywgJzgnLCAnLW1hJywgJzUwMCcsICctaW1hZScsICc8aW5maWxlLm1hZT4nLCAnLW9tYWUnLCAnPG91dGZpbGUubWFlPic=

>  <s_epik_input>  (1) 
W09IXVtDQEBIXShbQ0gzXSlbQ0gyXVtDSDJdW0NASF0oW0NIM10pT0MoPU8pW05IXVtDQEhdMVtDSF0oW09IXSlbTkBAXTFPW0NASF0oW0NAQEhdKEMoPU8pRilbT0hdKU9jKFtjSF0yKVtjSF1bY0hdYyhjMjMpT1tDSDJdTzM=

>  <s_glide_docking_method>  (1) 
confgen

>  <s_i_glide_gridfile>  (1) 
gpcr_drd2_6luq_protein_autoprepared_prepared

>  <s_lp_Force_Field>  (1) 
S-OPLS

>  <s_lp_Variant>  (1) 
DiffSBDD_69_num_sample_100-2

>  <s_m_source_file>  (1) 
generated__ligand_DiffSBDD_2026-05-06_prepared.sdf

>  <GenAI_Model>  (1) 
DiffSBDD

>  <Protein>  (1) 
generic_title2

$$$$
DiffSBDD_67_num_sample_100
     RDKit          3D

  0  0  0  0  0  0  0  0  0  0999 V3000
M  V30 BEGIN CTAB
M  V30 COUNTS 79 83 0 0 1
M  V30 BEGIN ATOM
M  V30 1 C 7.474255 3.736307 -16.910640 0 CFG=2
M  V30 2 C 6.244994 6.024657 -17.500190 0 CFG=1
M  V30 3 C 5.881794 7.227393 -16.610775 0
M  V30 4 C 6.356586 6.418156 -19.002533 0 CFG=1
M  V30 5 C 8.731416 3.921059 -12.793826 0
M  V30 6 C 7.255687 2.764188 -14.516464 0
M  V30 7 C 10.606905 8.447744 -7.304478 0
M  V30 8 C 11.885502 7.664117 -9.229543 0
M  V30 9 C 8.683463 5.817445 -19.964907 0 CFG=2
M  V30 10 C 9.299995 5.702690 -8.310687 0
M  V30 11 C 9.222508 5.310154 -12.387685 0
M  V30 12 C 11.758849 9.062542 -6.790172 0
M  V30 13 C 9.207805 7.029033 -10.613566 0
M  V30 14 O 9.060805 5.769302 -7.091680 0 CHG=-1
M  V30 15 F 14.206441 8.169304 -9.384537 0
M  V30 16 C 6.508386 4.382278 -11.187313 0
M  V30 17 O 9.434842 4.650922 -8.974407 0
M  V30 18 C 7.763485 6.927820 -19.415285 0
M  V30 19 C 8.285539 4.449796 -19.380922 0 CFG=2
M  V30 20 C 10.670323 7.739293 -8.525883 0
M  V30 21 C 6.891932 4.084265 -19.946672 0
M  V30 22 N 6.281556 3.786044 -12.504331 0
M  V30 23 C 7.094871 5.791813 -11.214824 0
M  V30 24 N 8.576349 5.788748 -11.150121 0 CFG=1 CHG=1
M  V30 25 C 5.903689 5.268806 -19.927323 0
M  V30 26 C 7.357789 3.929138 -13.496864 0 CFG=1
M  V30 27 C 8.383927 1.488263 -16.381393 0
M  V30 28 C 9.434831 7.035027 -9.057823 0 CFG=2
M  V30 29 O 10.038492 6.125145 -19.703428 0
M  V30 30 C 8.391983 4.469594 -17.851489 0 CFG=1
M  V30 31 C 7.456146 5.261840 -16.944890 0 CFG=2
M  V30 32 O 11.701019 9.742695 -5.608377 0
M  V30 33 C 12.973602 8.969301 -7.491666 0
M  V30 34 C 5.030326 4.313468 -13.018465 0
M  V30 35 C 13.034288 8.269204 -8.712661 0
M  V30 36 C 8.096492 2.889456 -15.813552 0 CFG=1
M  V30 37 H 6.634842 3.235332 -17.366084 0
M  V30 38 H 5.383367 5.369310 -17.408284 0
M  V30 39 H 6.634827 8.010829 -16.646786 0
M  V30 40 H 4.935195 7.671604 -16.920684 0
M  V30 41 H 5.768510 6.925521 -15.568794 0
M  V30 42 H 5.654894 7.237239 -19.168490 0
M  V30 43 H 8.790442 3.202029 -11.974978 0
M  V30 44 H 9.456150 3.565919 -13.491667 0
M  V30 45 H 7.547877 1.858283 -13.981888 0
M  V30 46 H 6.234842 2.578703 -14.816536 0
M  V30 47 H 9.674326 8.505381 -6.759817 0
M  V30 48 H 11.946498 7.118878 -10.155683 0
M  V30 49 H 12.532030 10.107621 -5.350285 0
M  V30 50 H 8.576843 5.774498 -21.050167 0
M  V30 51 H 9.078657 6.030154 -13.194958 0
M  V30 52 H 10.297121 5.241626 -12.213119 0
M  V30 53 H 8.634837 7.906394 -10.912366 0
M  V30 54 H 10.149318 7.172354 -11.133064 0
M  V30 55 H 7.165450 3.769304 -10.580780 0
M  V30 56 H 5.568234 4.387639 -10.631726 0
M  V30 57 H 7.680497 7.723918 -20.156331 0
M  V30 58 H 8.236353 7.369304 -18.546689 0
M  V30 59 H 8.987640 3.693081 -19.733589 0
M  V30 60 H 6.469234 3.208763 -19.459373 0
M  V30 61 H 7.014172 3.772102 -20.984646 0
M  V30 62 H 6.712113 6.169301 -10.291669 0
M  V30 63 H 6.712239 6.427003 -12.013850 0
M  V30 64 H 4.904605 4.922156 -19.662180 0
M  V30 65 H 5.815709 5.664173 -20.940682 0
M  V30 66 H 7.237273 4.873624 -14.029747 0
M  V30 67 H 7.491377 1.055497 -16.835898 0
M  V30 68 H 9.164343 1.517877 -17.142847 0
M  V30 69 H 8.695634 0.796546 -15.602443 0
M  V30 70 H 8.634844 7.600664 -8.600815 0
M  V30 71 H 10.162457 6.178096 -18.768479 0
M  V30 72 H 9.434089 4.510729 -17.539070 0
M  V30 73 H 7.949254 5.764969 -16.114901 0
M  V30 74 H 13.864526 9.428290 -7.091644 0
M  V30 75 H 4.715408 3.769309 -13.891671 0
M  V30 76 H 4.235202 4.169295 -12.291674 0
M  V30 77 H 5.087282 5.373984 -13.268820 0
M  V30 78 H 9.034838 3.369303 -15.572514 0
M  V30 79 H 8.819149 5.106650 -10.423980 0
M  V30 END ATOM
M  V30 BEGIN BOND
M  V30 1 1 3 2
M  V30 2 1 4 2
M  V30 3 1 11 5
M  V30 4 2 12 7
M  V30 5 1 14 10
M  V30 6 2 17 10
M  V30 7 1 18 4
M  V30 8 1 18 9
M  V30 9 1 19 9
M  V30 10 1 20 7
M  V30 11 2 20 8
M  V30 12 1 21 19
M  V30 13 1 22 16
M  V30 14 1 23 16
M  V30 15 1 24 11
M  V30 16 1 24 13
M  V30 17 1 24 23
M  V30 18 1 25 4
M  V30 19 1 25 21
M  V30 20 1 26 5
M  V30 21 1 26 6
M  V30 22 1 26 22
M  V30 23 1 28 10
M  V30 24 1 28 13
M  V30 25 1 28 20
M  V30 26 1 29 9
M  V30 27 1 30 1
M  V30 28 1 30 19
M  V30 29 1 31 1
M  V30 30 1 31 2
M  V30 31 1 31 30
M  V30 32 1 32 12
M  V30 33 1 33 12
M  V30 34 1 34 22
M  V30 35 1 35 8
M  V30 36 1 35 15
M  V30 37 2 35 33
M  V30 38 1 36 1
M  V30 39 1 36 6
M  V30 40 1 36 27
M  V30 41 1 1 37 CFG=3
M  V30 42 1 2 38 CFG=3
M  V30 43 1 39 3
M  V30 44 1 40 3
M  V30 45 1 41 3
M  V30 46 1 4 42 CFG=1
M  V30 47 1 43 5
M  V30 48 1 44 5
M  V30 49 1 45 6
M  V30 50 1 46 6
M  V30 51 1 47 7
M  V30 52 1 48 8
M  V30 53 1 49 32
M  V30 54 1 9 50 CFG=3
M  V30 55 1 51 11
M  V30 56 1 52 11
M  V30 57 1 53 13
M  V30 58 1 54 13
M  V30 59 1 55 16
M  V30 60 1 56 16
M  V30 61 1 57 18
M  V30 62 1 58 18
M  V30 63 1 19 59 CFG=3
M  V30 64 1 60 21
M  V30 65 1 61 21
M  V30 66 1 62 23
M  V30 67 1 63 23
M  V30 68 1 64 25
M  V30 69 1 65 25
M  V30 70 1 26 66 CFG=3
M  V30 71 1 67 27
M  V30 72 1 68 27
M  V30 73 1 69 27
M  V30 74 1 28 70 CFG=1
M  V30 75 1 71 29
M  V30 76 1 30 72 CFG=3
M  V30 77 1 31 73 CFG=1
M  V30 78 1 74 33
M  V30 79 1 75 34
M  V30 80 1 76 34
M  V30 81 1 77 34
M  V30 82 1 36 78 CFG=1
M  V30 83 1 24 79 CFG=1
M  V30 END BOND
M  V30 END CTAB
M  END
>  <i_epik_Tot_Q>  (1) 
0

>  <i_epik_Tot_abs_Q>  (1) 
2

>  <i_i_glide_confnum>  (1) 
9

>  <i_i_glide_lignum>  (1) 
134

>  <i_i_glide_posenum>  (1) 
279

>  <i_i_glide_rotatable_bonds>  (1) 
9

>  <i_lp_mmshare_version>  (1) 
72125

>  <i_m_source_file_index>  (1) 
68

>  <i_f3d_flags>  (1) 
0

>  <num_sample>  (1) 
100

>  <b_lp_Chiralities_Consistent>  (1) 
1

>  <r_epik_Charging_Adjusted_Penalty>  (1) 
0.12241089881330544

>  <r_epik_Ionization_Penalty>  (1) 
0.01898901772236716

>  <r_epik_Ionization_Penalty_Charging>  (1) 
0.00080544074301080722

>  <r_epik_Ionization_Penalty_Neutral>  (1) 
0.018183576979356353

>  <r_epik_State_Penalty>  (1) 
0.12160545807029463

>  <r_glide_ring_energy>  (1) 
0.36222063080148631

>  <r_i_docking_score>  (1) 
-4.3375513637833567

>  <r_i_glide_ecoul>  (1) 
-2.12914954185629

>  <r_i_glide_eff_state_penalty>  (1) 
0.12160545807029463

>  <r_i_glide_einternal>  (1) 
15.96567837772583

>  <r_i_glide_emodel>  (1) 
-15.21152864361154

>  <r_i_glide_emodel_strain>  (1) 
5.1196158217122019

>  <r_i_glide_energy>  (1) 
-23.207962200656706

>  <r_i_glide_erotb>  (1) 
0.48522832276191719

>  <r_i_glide_esite>  (1) 
-0.17738150695725885

>  <r_i_glide_evdw>  (1) 
-21.078812658800416

>  <r_i_glide_gscore>  (1) 
-4.459156821853651

>  <r_i_glide_gscore_strain>  (1) 
0.27990395542805047

>  <r_i_glide_hbond>  (1) 
0

>  <r_i_glide_ligand_efficiency>  (1) 
-0.12048753788287102

>  <r_i_glide_ligand_efficiency_ln>  (1) 
-0.94633652048231665

>  <r_i_glide_ligand_efficiency_sa>  (1) 
-0.39784108448767552

>  <r_i_glide_lipo>  (1) 
-2.7735945288678949

>  <r_i_glide_metal>  (1) 
-0

>  <r_i_glide_rewards>  (1) 
-0.90000000000000002

>  <r_lp_Energy>  (1) 
56.711821999999998

>  <r_lp_tautomer_probability>  (1) 
0.99999999999736477

>  <s_epik_cmdline>  (1) 
J2VwaWtfcHl0aG9uJywgJy1waHQnLCAnMS4wJywgJy1waCcsICc3LjQnLCAnLXRuJywgJzgnLCAnLW1hJywgJzUwMCcsICctaW1hZScsICc8aW5maWxlLm1hZT4nLCAnLW9tYWUnLCAnPG91dGZpbGUubWFlPic=

>  <s_epik_input>  (1) 
W0NIM11bQ0BASF0oW0NAQEhdMTIpW0NAQEhdM1tDQEhdKFtDQEhdKFtDQEBIXShbQ0gyXTEpW09IXSlbQ0gyXVtDSDJdMilbQ0BIXTNbQ0BIXShbQ0gzXSlbQ0gyXVtDQEBIXTRbQ0gyXVtDSDJdTihbQ0gyXVtDSDJdTjRbQ0gzXSlbQ0gyXVtDQEBIXShDKD1PKVtPSF0pQyg9W0NIXUM1PU8pW0NIMl1DKEYpPVtDSF01

>  <s_glide_docking_method>  (1) 
confgen

>  <s_i_glide_gridfile>  (1) 
gpcr_drd2_6luq_protein_autoprepared_prepared

>  <s_lp_Force_Field>  (1) 
S-OPLS

>  <s_lp_Variant>  (1) 
DiffSBDD_67_num_sample_100-2

>  <s_m_source_file>  (1) 
generated__ligand_DiffSBDD_2026-05-06_prepared.sdf

>  <GenAI_Model>  (1) 
DiffSBDD

>  <Protein>  (1) 
generic_title2

$$$$
DiffSBDD_26_num_sample_100
     RDKit          3D

  0  0  0  0  0  0  0  0  0  0999 V3000
M  V30 BEGIN CTAB
M  V30 COUNTS 72 77 0 0 1
M  V30 BEGIN ATOM
M  V30 1 C 9.434836 7.037574 -7.410715 0
M  V30 2 C 6.251025 -4.730037 -17.821715 0
M  V30 3 C 8.144869 3.407492 -16.171247 0
M  V30 4 C 4.234848 -1.683296 -18.681516 0
M  V30 5 F 5.700168 1.644849 -19.184216 0
M  V30 6 C 8.683113 4.635526 -11.813850 0 CFG=1
M  V30 7 C 7.578349 1.621157 -14.630551 0
M  V30 8 N 7.434821 -6.589202 -17.268737 0
M  V30 9 C 7.435122 8.123891 -12.648862 0
M  V30 10 C 8.491170 7.186815 -12.066691 0 CFG=1
M  V30 11 C 9.319011 7.874682 -10.973530 0
M  V30 12 C 5.350796 -2.405867 -18.226342 0
M  V30 13 C 6.304143 -5.933262 -17.062936 0
M  V30 14 C 6.709910 -0.378280 -18.393598 0
M  V30 15 N 7.957680 -3.909452 -19.491625 0
M  V30 16 C 7.431922 -4.748219 -18.521491 0
M  V30 17 O 8.171232 -5.830688 -18.188578 0
M  V30 18 C 8.426304 4.867679 -16.463703 0
M  V30 19 C 9.512495 5.699577 -9.552814 0 CFG=2
M  V30 20 C 5.282695 -6.493468 -16.116943 0
M  V30 21 N 5.199447 -3.764029 -17.891667 0
M  V30 22 C 8.401411 5.113547 -10.413509 0 CFG=1
M  V30 23 C 9.060334 5.964906 -8.125418 0
M  V30 24 C 7.992959 3.482879 -12.499303 0
M  V30 25 C 4.355986 -0.321447 -19.015439 0
M  V30 26 C 7.648007 0.738307 -15.717367 0
M  V30 27 C 10.347879 8.119575 -7.939516 0
M  V30 28 C 7.867761 5.892551 -11.595555 0 CFG=2
M  V30 29 C 8.032838 0.334939 -18.198928 0
M  V30 30 C 5.590533 0.331085 -18.873077 0
M  V30 31 C 6.592559 -1.746060 -18.073586 0
M  V30 32 C 11.124118 7.657617 -9.182517 0
M  V30 33 O 7.784840 3.910717 -13.838595 0
M  V30 34 C 7.834499 2.989555 -14.859443 0
M  V30 35 C 10.241044 6.919289 -10.206337 0 CFG=2
M  V30 36 C 7.967319 1.254312 -16.992368 0
M  V30 37 N 8.217689 2.564506 -17.228096 0
M  V30 38 H 9.065669 7.162794 -6.403514 0
M  V30 39 H 8.846219 -4.075969 -19.938080 0
M  V30 40 H 3.280756 -2.176766 -18.778535 0
M  V30 41 H 9.706456 4.772010 -12.159176 0
M  V30 42 H 7.331377 1.256968 -13.644958 0
M  V30 43 H 6.702399 8.405731 -11.891668 0
M  V30 44 H 6.902828 7.646935 -13.472135 0
M  V30 45 H 7.890885 9.034514 -13.032185 0
M  V30 46 H 9.170753 6.929552 -12.878409 0
M  V30 47 H 9.957317 8.586108 -11.479571 0
M  V30 48 H 8.687850 8.450792 -10.299634 0
M  V30 49 H 7.466900 -3.092565 -19.826064 0
M  V30 50 H 9.322262 5.189009 -15.932396 0
M  V30 51 H 7.592036 5.488182 -16.135220 0
M  V30 52 H 8.581023 5.039553 -17.529611 0
M  V30 53 H 10.234785 4.898473 -9.424107 0
M  V30 54 H 4.280449 -6.147881 -16.369783 0
M  V30 55 H 5.490712 -6.183645 -15.093031 0
M  V30 56 H 4.271314 -4.046936 -17.607074 0
M  V30 57 H 7.672467 4.523773 -9.860863 0
M  V30 58 H 8.398701 5.235404 -7.682802 0
M  V30 59 H 8.634643 2.604365 -12.412355 0
M  V30 60 H 7.030564 3.282595 -12.027983 0
M  V30 61 H 3.495381 0.225215 -19.372761 0
M  V30 62 H 7.454634 -0.316704 -15.581415 0
M  V30 63 H 11.037463 8.435810 -7.156908 0
M  V30 64 H 9.715479 8.969320 -8.183255 0
M  V30 65 H 6.793395 5.815626 -11.755619 0
M  V30 66 H 8.840498 -0.384153 -18.056324 0
M  V30 67 H 8.270845 0.902060 -19.100557 0
M  V30 68 H 7.447402 -2.278126 -17.687601 0
M  V30 69 H 11.633426 8.502629 -9.647183 0
M  V30 70 H 11.900992 6.971211 -8.856560 0
M  V30 71 H 10.914203 6.569301 -10.984659 0
M  V30 72 H 5.272734 -7.583341 -16.139816 0
M  V30 END ATOM
M  V30 BEGIN BOND
M  V30 1 1 10 9
M  V30 2 1 11 10
M  V30 3 1 12 4
M  V30 4 1 13 2
M  V30 5 2 13 8
M  V30 6 2 16 2
M  V30 7 1 16 15
M  V30 8 1 17 8
M  V30 9 1 17 16
M  V30 10 1 18 3
M  V30 11 1 20 13
M  V30 12 1 21 2
M  V30 13 1 21 12
M  V30 14 1 22 6
M  V30 15 1 22 19
M  V30 16 2 23 1
M  V30 17 1 23 19
M  V30 18 1 24 6
M  V30 19 2 25 4
M  V30 20 2 26 7
M  V30 21 1 27 1
M  V30 22 1 28 6
M  V30 23 1 28 10
M  V30 24 1 28 22
M  V30 25 1 29 14
M  V30 26 1 30 5
M  V30 27 2 30 14
M  V30 28 1 30 25
M  V30 29 2 31 12
M  V30 30 1 31 14
M  V30 31 1 32 27
M  V30 32 1 33 24
M  V30 33 2 34 3
M  V30 34 1 34 7
M  V30 35 1 34 33
M  V30 36 1 35 11
M  V30 37 1 35 19
M  V30 38 1 35 32
M  V30 39 1 36 26
M  V30 40 1 36 29
M  V30 41 1 37 3
M  V30 42 2 37 36
M  V30 43 1 38 1
M  V30 44 1 39 15
M  V30 45 1 40 4
M  V30 46 1 6 41 CFG=3
M  V30 47 1 42 7
M  V30 48 1 43 9
M  V30 49 1 44 9
M  V30 50 1 45 9
M  V30 51 1 10 46 CFG=3
M  V30 52 1 47 11
M  V30 53 1 48 11
M  V30 54 1 49 15
M  V30 55 1 50 18
M  V30 56 1 51 18
M  V30 57 1 52 18
M  V30 58 1 19 53 CFG=1
M  V30 59 1 54 20
M  V30 60 1 55 20
M  V30 61 1 56 21
M  V30 62 1 22 57 CFG=1
M  V30 63 1 58 23
M  V30 64 1 59 24
M  V30 65 1 60 24
M  V30 66 1 61 25
M  V30 67 1 62 26
M  V30 68 1 63 27
M  V30 69 1 64 27
M  V30 70 1 28 65 CFG=1
M  V30 71 1 66 29
M  V30 72 1 67 29
M  V30 73 1 68 31
M  V30 74 1 69 32
M  V30 75 1 70 32
M  V30 76 1 35 71 CFG=3
M  V30 77 1 72 20
M  V30 END BOND
M  V30 END CTAB
M  END
>  <i_epik_Tot_Q>  (1) 
0

>  <i_epik_Tot_abs_Q>  (1) 
0

>  <i_i_glide_confnum>  (1) 
253

>  <i_i_glide_lignum>  (1) 
41

>  <i_i_glide_posenum>  (1) 
368

>  <i_i_glide_rotatable_bonds>  (1) 
7

>  <i_lp_mmshare_version>  (1) 
72125

>  <i_m_source_file_index>  (1) 
27

>  <i_f3d_flags>  (1) 
0

>  <num_sample>  (1) 
100

>  <b_lp_Chiralities_Consistent>  (1) 
1

>  <r_epik_Charging_Adjusted_Penalty>  (1) 
0

>  <r_epik_Ionization_Penalty>  (1) 
0.044548018534552827

>  <r_epik_Ionization_Penalty_Charging>  (1) 
0

>  <r_epik_Ionization_Penalty_Neutral>  (1) 
0.044548018534552827

>  <r_epik_State_Penalty>  (1) 
-0

>  <r_glide_ring_energy>  (1) 
0

>  <r_i_docking_score>  (1) 
-4.3371765042867336

>  <r_i_glide_ecoul>  (1) 
-2.106665054789965

>  <r_i_glide_eff_state_penalty>  (1) 
-0

>  <r_i_glide_einternal>  (1) 
4.3021583841170017

>  <r_i_glide_emodel>  (1) 
-49.288948781755764

>  <r_i_glide_emodel_strain>  (1) 
0

>  <r_i_glide_energy>  (1) 
-40.630079615078472

>  <r_i_glide_erotb>  (1) 
0.5661782271396133

>  <r_i_glide_esite>  (1) 
-0.074493678902132723

>  <r_i_glide_evdw>  (1) 
-38.523414560288508

>  <r_i_glide_gscore>  (1) 
-4.3371765042867336

>  <r_i_glide_gscore_strain>  (1) 
0

>  <r_i_glide_hbond>  (1) 
0

>  <r_i_glide_ligand_efficiency>  (1) 
-0.11722098660234415

>  <r_i_glide_ligand_efficiency_ln>  (1) 
-0.94063190593638046

>  <r_i_glide_ligand_efficiency_sa>  (1) 
-0.39060633302782877

>  <r_i_glide_lipo>  (1) 
-1.6642895667454822

>  <r_i_glide_metal>  (1) 
-0

>  <r_i_glide_rewards>  (1) 
-0.92240099954581112

>  <r_lp_Energy>  (1) 
47.597484999999999

>  <r_lp_tautomer_probability>  (1) 
1

>  <s_epik_cmdline>  (1) 
J2VwaWtfcHl0aG9uJywgJy1waHQnLCAnMS4wJywgJy1waCcsICc3LjQnLCAnLXRuJywgJzgnLCAnLW1hJywgJzUwMCcsICctaW1hZScsICc8aW5maWxlLm1hZT4nLCAnLW9tYWUnLCAnPG91dGZpbGUubWFlPic=

>  <s_epik_input>  (1) 
W0NIXTE9W0NIXVtDSDJdW0NIMl1bQ0BASF0yW0NIMl1bQ0BIXShbQ0gzXSlbQ0hdKFtDQEBIXTNbQ0BIXTEyKVtDQEBIXTNbQ0gyXU9jKGM0W0NIM10pW2NIXVtjSF1jKG40KVtDSDJdYyhbY0hdNSljKEYpW2NIXVtjSF1jNVtOSF1bQ0BIXTZDKD1bQ0gyXSlbTkhdT0MvNj1OXFtIXQ==

>  <s_glide_docking_method>  (1) 
confgen

>  <s_i_glide_gridfile>  (1) 
gpcr_drd2_6luq_protein_autoprepared_prepared

>  <s_lp_Force_Field>  (1) 
S-OPLS

>  <s_lp_Variant>  (1) 
DiffSBDD_26_num_sample_100-1

>  <s_m_source_file>  (1) 
generated__ligand_DiffSBDD_2026-05-06_prepared.sdf

>  <GenAI_Model>  (1) 
DiffSBDD

>  <Protein>  (1) 
generic_title2

$$$$
DiffSBDD_29_num_sample_100
     RDKit          3D

  0  0  0  0  0  0  0  0  0  0999 V3000
M  V30 BEGIN CTAB
M  V30 COUNTS 73 77 0 0 1
M  V30 BEGIN ATOM
M  V30 1 F 8.197002 4.779864 -21.789998 0
M  V30 2 O 6.234851 3.369333 -11.950030 0
M  V30 3 N 7.512754 7.484504 -11.891678 0
M  V30 4 C 9.616872 5.156608 -8.290293 0
M  V30 5 N 10.432377 6.407646 -20.826106 0
M  V30 6 C 11.846990 5.215523 -19.173394 0
M  V30 7 C 6.322227 4.791619 -13.857073 0 CFG=1
M  V30 8 C 10.801641 4.739498 -17.006121 0
M  V30 9 C 10.645672 5.817713 -19.577046 0
M  V30 10 C 6.251587 7.769016 -12.391047 0
M  V30 11 C 8.009733 5.074779 -10.282057 0
M  V30 12 N 5.384394 6.125623 -15.627347 0
M  V30 13 C 10.152752 7.576728 -7.936587 0 CFG=1
M  V30 14 O 9.825294 8.665457 -7.111550 0
M  V30 15 O 4.307765 6.969236 -17.806832 0
M  V30 16 C 9.840421 6.829664 -11.845642 0
M  V30 17 C 10.068148 6.667553 -10.325514 0 CFG=2
M  V30 18 C 8.973910 6.844063 -20.905544 0 CFG=2
M  V30 19 C 7.266462 6.781684 -18.980548 0
M  V30 20 C 7.316242 3.928418 -14.667416 0
M  V30 21 C 5.651137 7.260486 -13.487725 0
M  V30 22 C 6.545426 4.689463 -12.328424 0 CFG=2
M  V30 23 N 6.841836 6.474346 -17.688952 0
M  V30 24 C 9.606183 5.346335 -17.461623 0
M  V30 25 C 8.502433 6.506086 -19.464402 0
M  V30 26 C 9.434833 5.345134 -9.797116 0 CFG=1
M  V30 27 C 11.928947 4.670455 -17.869113 0
M  V30 28 C 9.291943 6.399294 -7.480924 0
M  V30 29 F 6.954861 6.541175 -22.102220 0
M  V30 30 C 8.424111 6.461835 -12.343306 0 CFG=1
M  V30 31 C 9.944211 7.918784 -9.429016 0
M  V30 32 C 6.230740 6.231422 -14.443319 0 CFG=1
M  V30 33 C 7.955904 5.080063 -11.825216 0 CFG=1
M  V30 34 C 8.206893 6.095401 -22.009059 0
M  V30 35 C 9.576461 5.874736 -18.772308 0
M  V30 36 O 5.834818 8.517415 -16.419085 0
M  V30 37 S 5.476823 7.193163 -16.944268 0
M  V30 38 H 6.892355 2.790286 -12.305056 0
M  V30 39 H 9.033424 4.313569 -7.915140 0
M  V30 40 H 10.658696 4.909927 -8.102399 0
M  V30 41 H 10.890381 6.037910 -21.646287 0
M  V30 42 H 12.695543 5.177042 -19.839845 0
M  V30 43 H 5.336754 4.343627 -13.996039 0
M  V30 44 H 10.854454 4.326146 -16.009248 0
M  V30 45 H 5.731343 8.497083 -11.785582 0
M  V30 46 H 7.674279 4.121041 -9.898170 0
M  V30 47 H 7.297231 5.769305 -9.853266 0
M  V30 48 H 5.038656 5.194039 -15.853514 0
M  V30 49 H 11.203295 7.335692 -7.770790 0
M  V30 50 H 8.889353 8.796204 -7.175823 0
M  V30 51 H 10.103464 7.836736 -12.163769 0
M  V30 52 H 10.544471 6.173203 -12.359339 0
M  V30 53 H 11.136325 6.569346 -10.225140 0
M  V30 54 H 8.927592 7.921183 -21.064593 0
M  V30 55 H 6.508907 7.269436 -19.575734 0
M  V30 56 H 8.327507 4.334146 -14.623089 0
M  V30 57 H 7.033568 3.875704 -15.719277 0
M  V30 58 H 7.354325 2.903293 -14.302582 0
M  V30 59 H 5.793666 5.276428 -11.803673 0
M  V30 60 H 7.552215 6.132290 -17.048758 0
M  V30 61 H 8.752004 5.389406 -16.818541 0
M  V30 62 H 9.981047 4.521570 -10.251426 0
M  V30 63 H 12.842791 4.207062 -17.531329 0
M  V30 64 H 9.459826 6.195703 -6.422677 0
M  V30 65 H 8.235048 6.623491 -7.589818 0
M  V30 66 H 8.529776 6.463165 -13.418373 0
M  V30 67 H 9.025845 8.448464 -9.597448 0
M  V30 68 H 10.706234 8.640754 -9.726036 0
M  V30 69 H 7.186302 6.594681 -14.810702 0
M  V30 70 H 8.662296 4.334417 -12.194786 0
M  V30 71 H 8.667127 6.258684 -22.984176 0
M  V30 72 H 4.667358 7.613909 -13.727807 0
M  V30 73 H 7.717302 7.860347 -10.962398 0
M  V30 END ATOM
M  V30 BEGIN BOND
M  V30 1 1 9 5
M  V30 2 2 9 6
M  V30 3 1 10 3
M  V30 4 1 14 13
M  V30 5 1 17 16
M  V30 6 1 18 5
M  V30 7 1 20 7
M  V30 8 2 21 10
M  V30 9 1 22 2
M  V30 10 1 22 7
M  V30 11 1 23 19
M  V30 12 1 24 8
M  V30 13 1 25 18
M  V30 14 2 25 19
M  V30 15 1 26 4
M  V30 16 1 26 11
M  V30 17 1 26 17
M  V30 18 1 27 6
M  V30 19 2 27 8
M  V30 20 1 28 4
M  V30 21 1 28 13
M  V30 22 1 30 3
M  V30 23 1 30 16
M  V30 24 1 31 13
M  V30 25 1 31 17
M  V30 26 1 32 7
M  V30 27 1 32 12
M  V30 28 1 32 21
M  V30 29 1 33 11
M  V30 30 1 33 22
M  V30 31 1 33 30
M  V30 32 1 34 1
M  V30 33 1 34 18
M  V30 34 1 34 29
M  V30 35 1 35 9
M  V30 36 2 35 24
M  V30 37 1 35 25
M  V30 38 1 37 12
M  V30 39 2 37 15
M  V30 40 1 37 23
M  V30 41 2 37 36
M  V30 42 1 38 2
M  V30 43 1 39 4
M  V30 44 1 40 4
M  V30 45 1 41 5
M  V30 46 1 42 6
M  V30 47 1 7 43 CFG=1
M  V30 48 1 44 8
M  V30 49 1 45 10
M  V30 50 1 46 11
M  V30 51 1 47 11
M  V30 52 1 48 12
M  V30 53 1 13 49 CFG=3
M  V30 54 1 50 14
M  V30 55 1 51 16
M  V30 56 1 52 16
M  V30 57 1 17 53 CFG=3
M  V30 58 1 18 54 CFG=3
M  V30 59 1 55 19
M  V30 60 1 56 20
M  V30 61 1 57 20
M  V30 62 1 58 20
M  V30 63 1 22 59 CFG=1
M  V30 64 1 60 23
M  V30 65 1 61 24
M  V30 66 1 26 62 CFG=3
M  V30 67 1 63 27
M  V30 68 1 64 28
M  V30 69 1 65 28
M  V30 70 1 30 66 CFG=3
M  V30 71 1 67 31
M  V30 72 1 68 31
M  V30 73 1 32 69 CFG=3
M  V30 74 1 33 70 CFG=3
M  V30 75 1 71 34
M  V30 76 1 72 21
M  V30 77 1 73 3
M  V30 END BOND
M  V30 END CTAB
M  END
>  <i_epik_Tot_Q>  (1) 
0

>  <i_epik_Tot_abs_Q>  (1) 
0

>  <i_i_glide_confnum>  (1) 
73

>  <i_i_glide_lignum>  (1) 
52

>  <i_i_glide_posenum>  (1) 
333

>  <i_i_glide_rotatable_bonds>  (1) 
7

>  <i_lp_mmshare_version>  (1) 
72125

>  <i_m_source_file_index>  (1) 
30

>  <i_f3d_flags>  (1) 
0

>  <num_sample>  (1) 
100

>  <b_lp_Chiralities_Consistent>  (1) 
1

>  <r_epik_Charging_Adjusted_Penalty>  (1) 
1.5459132844328078e-07

>  <r_epik_Ionization_Penalty>  (1) 
1.5952634643945804

>  <r_epik_Ionization_Penalty_Charging>  (1) 
1.5459132844328078e-07

>  <r_epik_Ionization_Penalty_Neutral>  (1) 
1.595263309803252

>  <r_epik_State_Penalty>  (1) 
-0

>  <r_glide_ring_energy>  (1) 
0

>  <r_i_docking_score>  (1) 
-4.3351745137711566

>  <r_i_glide_ecoul>  (1) 
-4.8705162871563301

>  <r_i_glide_eff_state_penalty>  (1) 
-0

>  <r_i_glide_einternal>  (1) 
3.7209754790706606

>  <r_i_glide_emodel>  (1) 
-35.14149059245527

>  <r_i_glide_emodel_strain>  (1) 
0.6931372336248387

>  <r_i_glide_energy>  (1) 
-34.54450638906664

>  <r_i_glide_erotb>  (1) 
0.28486469644810641

>  <r_i_glide_esite>  (1) 
-0.10000000000000001

>  <r_i_glide_evdw>  (1) 
-29.673990101910313

>  <r_i_glide_gscore>  (1) 
-4.3351745137711566

>  <r_i_glide_gscore_strain>  (1) 
0

>  <r_i_glide_hbond>  (1) 
-0.11394350717650423

>  <r_i_glide_ligand_efficiency>  (1) 
-0.1171668787505718

>  <r_i_glide_ligand_efficiency_ln>  (1) 
-0.9401977211268685

>  <r_i_glide_ligand_efficiency_sa>  (1) 
-0.39042603366180734

>  <r_i_glide_lipo>  (1) 
-1.1985245259571682

>  <r_i_glide_metal>  (1) 
-0

>  <r_i_glide_rewards>  (1) 
-0.99329422891662533

>  <r_lp_Energy>  (1) 
37.495854000000001

>  <r_lp_tautomer_probability>  (1) 
1

>  <s_epik_Chemistry_Notes>  (1) 
This compound has an imine and may undergo hydrolysis.

>  <s_epik_cmdline>  (1) 
J2VwaWtfcHl0aG9uJywgJy1waHQnLCAnMS4wJywgJy1waCcsICc3LjQnLCAnLXRuJywgJzgnLCAnLW1hJywgJzUwMCcsICctaW1hZScsICc8aW5maWxlLm1hZT4nLCAnLW9tYWUnLCAnPG91dGZpbGUubWFlPic=

>  <s_epik_input>  (1) 
W2NIXTFbY0hdW2NIXVtjSF1jKGMxMilDKC9bQ0BASF0oW05IXTIpW0NIXShGKUYpPVtDSF1cW05IXVMoPU8pKD1PKVtOSF1bQ0BIXShbQ0BASF0oW0NIM10pW0NASF0zW09IXSlbQ0gyXVxbQ0hdPU5cW0NAQEhdKFtDSDJdNClbQ0BIXTNbQ0gyXVtDQEBIXShbQ0BASF00NSlbQ0gyXVtDSDJdW0NASF0oW09IXSlbQ0gyXTU=

>  <s_glide_docking_method>  (1) 
confgen

>  <s_i_glide_gridfile>  (1) 
gpcr_drd2_6luq_protein_autoprepared_prepared

>  <s_lp_Force_Field>  (1) 
S-OPLS

>  <s_lp_Variant>  (1) 
DiffSBDD_29_num_sample_100-2

>  <s_m_source_file>  (1) 
generated__ligand_DiffSBDD_2026-05-06_prepared.sdf

>  <GenAI_Model>  (1) 
DiffSBDD

>  <Protein>  (1) 
generic_title2

$$$$
DiffSBDD_59_num_sample_100
     RDKit          3D

  0  0  0  0  0  0  0  0  0  0999 V3000
M  V30 BEGIN CTAB
M  V30 COUNTS 74 77 0 0 1
M  V30 BEGIN ATOM
M  V30 1 C 8.516608 3.943716 -11.501200 0
M  V30 2 N 8.799863 2.173497 -17.503706 0 CFG=1 CHG=1
M  V30 3 C 9.677800 2.509506 -18.661484 0
M  V30 4 C 8.213666 3.361553 -16.786069 0 CFG=1
M  V30 5 C 10.840351 6.997225 -11.144873 0
M  V30 6 C 9.205806 5.221040 -11.991064 0 CFG=2
M  V30 7 C 13.149176 8.343079 -1.480415 0
M  V30 8 C 12.034469 9.103367 -4.341256 0
M  V30 9 C 9.219644 6.058904 -9.575787 0
M  V30 10 C 11.835113 7.846361 -3.733795 0
M  V30 11 O 7.019394 5.347108 -14.860106 0
M  V30 12 O 11.834793 8.856219 -1.526077 0
M  V30 13 C 11.406154 6.782451 -4.546238 0
M  V30 14 C 9.740403 6.870209 -8.551180 0
M  V30 15 C 10.785555 1.459909 -18.868079 0
M  V30 16 C 9.765223 6.115622 -10.878117 0
M  V30 17 C 11.434982 8.310692 -6.436210 0
M  V30 18 C 11.349075 7.816049 -10.117653 0
M  V30 19 N 11.842065 9.338344 -5.657832 0
M  V30 20 C 7.836752 1.074891 -17.837861 0
M  V30 21 N 9.253967 4.969312 -14.945033 0
M  V30 22 C 11.467523 7.058828 -12.523595 0
M  V30 23 C 7.145573 4.041646 -17.676666 0
M  V30 24 O 7.638657 2.743077 -15.650921 0
M  V30 25 N 11.349695 8.586079 -7.816722 0
M  V30 26 C 8.130914 5.412296 -14.344172 0
M  V30 27 C 10.814507 7.749116 -8.817439 0
M  V30 28 C 10.317579 0.176377 -19.527583 0
M  V30 29 C 11.203543 7.010148 -5.916849 0
M  V30 30 C 8.297774 6.027917 -12.949103 0
M  V30 31 C 7.461293 -1.423864 -17.611907 0
M  V30 32 C 12.067452 7.646938 -2.265182 0 CFG=2
M  V30 33 C 8.504579 -0.314345 -17.818974 0 CFG=1
M  V30 34 C 9.308063 4.378174 -16.299235 0
M  V30 35 C 9.319644 -0.599987 -19.069209 0
M  V30 36 H 9.190678 3.375780 -10.858634 0
M  V30 37 H 7.601336 4.169199 -10.951672 0
M  V30 38 H 8.246145 3.295386 -12.335782 0
M  V30 39 H 9.085738 2.625777 -19.572340 0
M  V30 40 H 10.171451 3.470028 -18.523912 0
M  V30 41 H 10.064895 4.815894 -12.516027 0
M  V30 42 H 13.434419 7.970845 -0.499298 0
M  V30 43 H 13.861791 8.968648 -1.995782 0
M  V30 44 H 12.363651 9.946027 -3.753604 0
M  V30 45 H 8.395938 5.399007 -9.359423 0
M  V30 46 H 11.246059 5.800142 -4.125527 0
M  V30 47 H 9.294482 6.831253 -7.570214 0
M  V30 48 H 11.552351 1.884595 -19.519507 0
M  V30 49 H 11.285978 1.226105 -17.925851 0
M  V30 50 H 12.167610 8.489272 -10.325578 0
M  V30 51 H 7.003696 1.041331 -17.136554 0
M  V30 52 H 7.364243 1.257808 -18.803414 0
M  V30 53 H 10.129056 5.052528 -14.445182 0
M  V30 54 H 12.509650 7.369308 -12.466378 0
M  V30 55 H 11.467568 6.169683 -13.122889 0
M  V30 56 H 10.900048 7.768923 -13.091531 0
M  V30 57 H 7.596234 4.464598 -18.574575 0
M  V30 58 H 6.375034 3.346407 -18.007842 0
M  V30 59 H 6.641410 4.867018 -17.181404 0
M  V30 60 H 7.193497 3.428495 -15.163322 0
M  V30 61 H 11.803184 9.430987 -8.128346 0
M  V30 62 H 10.840037 -0.115536 -20.427736 0
M  V30 63 H 10.916838 6.193733 -6.552259 0
M  V30 64 H 8.695152 7.030942 -13.089652 0
M  V30 65 H 7.319128 6.173859 -12.489147 0
M  V30 66 H 7.942832 -2.400501 -17.531982 0
M  V30 67 H 6.893961 -1.271802 -16.691225 0
M  V30 68 H 6.749727 -1.467353 -18.438445 0
M  V30 69 H 11.578768 6.763079 -1.856414 0
M  V30 70 H 9.181263 -0.367267 -16.965439 0
M  V30 71 H 10.280569 3.885244 -16.312212 0
M  V30 72 H 9.398551 5.195576 -17.014773 0
M  V30 73 H 9.061819 -1.498183 -19.611805 0
M  V30 74 H 9.410147 1.777848 -16.804200 0
M  V30 END ATOM
M  V30 BEGIN BOND
M  V30 1 1 3 2
M  V30 2 1 4 2
M  V30 3 1 6 1
M  V30 4 2 10 8
M  V30 5 1 12 7
M  V30 6 1 13 10
M  V30 7 2 14 9
M  V30 8 1 15 3
M  V30 9 2 16 5
M  V30 10 1 16 6
M  V30 11 1 16 9
M  V30 12 1 18 5
M  V30 13 1 19 8
M  V30 14 2 19 17
M  V30 15 1 20 2
M  V30 16 1 22 5
M  V30 17 1 23 4
M  V30 18 1 4 24 CFG=1
M  V30 19 1 25 17
M  V30 20 2 26 11
M  V30 21 1 26 21
M  V30 22 1 27 14
M  V30 23 2 27 18
M  V30 24 1 27 25
M  V30 25 1 28 15
M  V30 26 2 29 13
M  V30 27 1 29 17
M  V30 28 1 30 6
M  V30 29 1 30 26
M  V30 30 1 32 7
M  V30 31 1 32 10
M  V30 32 1 32 12
M  V30 33 1 33 20
M  V30 34 1 33 31
M  V30 35 1 34 4
M  V30 36 1 34 21
M  V30 37 2 35 28
M  V30 38 1 35 33
M  V30 39 1 36 1
M  V30 40 1 37 1
M  V30 41 1 38 1
M  V30 42 1 39 3
M  V30 43 1 40 3
M  V30 44 1 6 41 CFG=3
M  V30 45 1 42 7
M  V30 46 1 43 7
M  V30 47 1 44 8
M  V30 48 1 45 9
M  V30 49 1 46 13
M  V30 50 1 47 14
M  V30 51 1 48 15
M  V30 52 1 49 15
M  V30 53 1 50 18
M  V30 54 1 51 20
M  V30 55 1 52 20
M  V30 56 1 53 21
M  V30 57 1 54 22
M  V30 58 1 55 22
M  V30 59 1 56 22
M  V30 60 1 57 23
M  V30 61 1 58 23
M  V30 62 1 59 23
M  V30 63 1 60 24
M  V30 64 1 61 25
M  V30 65 1 62 28
M  V30 66 1 63 29
M  V30 67 1 64 30
M  V30 68 1 65 30
M  V30 69 1 66 31
M  V30 70 1 67 31
M  V30 71 1 68 31
M  V30 72 1 32 69 CFG=1
M  V30 73 1 33 70 CFG=1
M  V30 74 1 71 34
M  V30 75 1 72 34
M  V30 76 1 73 35
M  V30 77 1 2 74 CFG=1
M  V30 END BOND
M  V30 END CTAB
M  END
>  <i_epik_Tot_Q>  (1) 
1

>  <i_epik_Tot_abs_Q>  (1) 
1

>  <i_i_glide_confnum>  (1) 
946

>  <i_i_glide_lignum>  (1) 
119

>  <i_i_glide_posenum>  (1) 
215

>  <i_i_glide_rotatable_bonds>  (1) 
11

>  <i_lp_mmshare_version>  (1) 
72125

>  <i_m_source_file_index>  (1) 
60

>  <i_f3d_flags>  (1) 
0

>  <num_sample>  (1) 
100

>  <b_lp_Chiralities_Consistent>  (1) 
1

>  <r_epik_Charging_Adjusted_Penalty>  (1) 
1.3886415501160498

>  <r_epik_Ionization_Penalty>  (1) 
0.71269190361940904

>  <r_epik_Ionization_Penalty_Charging>  (1) 
0.69432077505802503

>  <r_epik_Ionization_Penalty_Neutral>  (1) 
0.018371128561383968

>  <r_epik_State_Penalty>  (1) 
0.69432077505802492

>  <r_glide_ring_energy>  (1) 
0

>  <r_i_docking_score>  (1) 
-4.3340284426321363

>  <r_i_glide_ecoul>  (1) 
-3.554768890609175

>  <r_i_glide_eff_state_penalty>  (1) 
0.69432077505802492

>  <r_i_glide_einternal>  (1) 
13.027769455675223

>  <r_i_glide_emodel>  (1) 
-38.049216364223454

>  <r_i_glide_emodel_strain>  (1) 
4.4672488702025959

>  <r_i_glide_energy>  (1) 
-37.855430399709306

>  <r_i_glide_erotb>  (1) 
0.88120926584797454

>  <r_i_glide_esite>  (1) 
0

>  <r_i_glide_evdw>  (1) 
-34.300661509100131

>  <r_i_glide_gscore>  (1) 
-5.0283492176901614

>  <r_i_glide_gscore_strain>  (1) 
0.11681221755064897

>  <r_i_glide_hbond>  (1) 
-0.00045369590927402115

>  <r_i_glide_ligand_efficiency>  (1) 
-0.1238293840752039

>  <r_i_glide_ligand_efficiency_ln>  (1) 
-0.95141543173653464

>  <r_i_glide_ligand_efficiency_sa>  (1) 
-0.40505412645980299

>  <r_i_glide_lipo>  (1) 
-2.5980709135420188

>  <r_i_glide_metal>  (1) 
-0

>  <r_i_glide_rewards>  (1) 
-1.1795976825911101

>  <r_lp_Energy>  (1) 
34.238330999999995

>  <r_lp_tautomer_probability>  (1) 
0.99999977220005165

>  <s_epik_cmdline>  (1) 
J2VwaWtfcHl0aG9uJywgJy1waHQnLCAnMS4wJywgJy1waCcsICc3LjQnLCAnLXRuJywgJzgnLCAnLW1hJywgJzUwMCcsICctaW1hZScsICc8aW5maWxlLm1hZT4nLCAnLW9tYWUnLCAnPG91dGZpbGUubWFlPic=

>  <s_epik_input>  (1) 
W0NIMl0xW0NAQEhdKFtDSDNdKVtDSF09W0NIXVtDSDJdW0NIMl1OMVtDQEBdKFtDSDNdKShbT0hdKVtDSDJdW05IXUMoPU8pW0NIMl1bQ0BIXShbQ0gzXSljKGMyW0NIM10pW2NIXVtjSF1jKFtjSF0yKVtOSF1jKFtjSF1bY0hdMyluW2NIXWMzW0NASF00W0NIMl1PNA==

>  <s_glide_docking_method>  (1) 
confgen

>  <s_i_glide_gridfile>  (1) 
gpcr_drd2_6luq_protein_autoprepared_prepared

>  <s_lp_Force_Field>  (1) 
S-OPLS

>  <s_lp_Variant>  (1) 
DiffSBDD_59_num_sample_100-3

>  <s_m_source_file>  (1) 
generated__ligand_DiffSBDD_2026-05-06_prepared.sdf

>  <GenAI_Model>  (1) 
DiffSBDD

>  <Protein>  (1) 
generic_title2

$$$$
DiffSBDD_78_num_sample_100
     RDKit          3D

  0  0  0  0  0  0  0  0  0  0999 V3000
M  V30 BEGIN CTAB
M  V30 COUNTS 75 84 0 0 1
M  V30 BEGIN ATOM
M  V30 1 C 9.133204 4.729569 -18.815301 0
M  V30 2 C 7.104440 6.930523 -22.509622 0 CFG=1
M  V30 3 C 9.527395 4.833734 -16.302505 0
M  V30 4 C 9.611235 6.836114 -21.442022 0
M  V30 5 C 5.064391 6.915711 -19.407253 0
M  V30 6 C 4.942701 7.622065 -22.750350 0 CFG=2
M  V30 7 C 6.852406 -2.184678 -19.430315 0
M  V30 8 O 7.728548 -3.498663 -17.491667 0
M  V30 9 C 6.016506 -1.803505 -18.221075 0 CFG=1
M  V30 10 C 7.947622 1.666299 -15.344486 0 CFG=2
M  V30 11 C 7.107338 0.486472 -15.698926 0
M  V30 12 C 5.046079 7.190943 -20.894833 0 CFG=2
M  V30 13 C 7.461797 -2.225961 -18.055875 0 CFG=2
M  V30 14 C 8.524146 5.070179 -17.446821 0
M  V30 15 C 4.234874 6.598699 -22.030441 0 CFG=1
M  V30 16 C 8.167566 7.186440 -21.524925 0 CFG=1
M  V30 17 C 7.629566 5.457501 -14.511473 0
M  V30 18 C 8.098783 -1.055154 -17.407535 0
M  V30 19 N 8.337187 5.288077 -19.926483 0 CHG=1
M  V30 20 O 9.289824 -1.034183 -17.091668 0
M  V30 21 C 5.724427 6.491020 -22.027597 0 CFG=2
M  V30 22 C 5.851569 -0.326805 -17.823130 0
M  V30 23 C 3.908847 9.505345 -21.273097 0
M  V30 24 C 7.132209 2.918070 -14.977230 0
M  V30 25 C 6.485012 9.258008 -21.492302 0
M  V30 26 C 7.177286 0.133133 -17.154257 0 CFG=1
M  V30 27 C 6.359503 -0.181605 -14.802529 0
M  V30 28 C 4.847392 -2.674676 -17.796081 0
M  V30 29 C 7.566987 8.396999 -22.131894 0 CFG=2
M  V30 30 C 7.940816 3.995638 -14.266618 0 CFG=1
M  V30 31 O 8.633992 1.886648 -16.573111 0
M  V30 32 C 8.993783 4.910410 -14.875217 0 CFG=1
M  V30 33 C 5.102191 8.590568 -21.544389 0 CFG=2
M  V30 34 O 7.746803 1.320326 -17.684110 0
M  V30 35 C 8.662028 6.698183 -20.215141 0 CFG=1
M  V30 36 H 10.160418 5.091318 -18.890143 0
M  V30 37 H 9.178354 3.645096 -18.925596 0
M  V30 38 H 7.419283 6.563641 -23.484913 0
M  V30 39 H 10.314779 5.583663 -16.389404 0
M  V30 40 H 10.035995 3.878724 -16.423381 0
M  V30 41 H 10.324449 7.658223 -21.437104 0
M  V30 42 H 9.941005 5.934267 -21.954415 0
M  V30 43 H 4.997564 5.844460 -19.218514 0
M  V30 44 H 5.983340 7.297247 -18.963208 0
M  V30 45 H 4.219668 7.408677 -18.925946 0
M  V30 46 H 4.919642 7.831070 -23.818207 0
M  V30 47 H 7.169403 -1.389220 -20.101956 0
M  V30 48 H 6.642538 -3.137493 -19.912705 0
M  V30 49 H 7.643958 -3.430158 -16.539819 0
M  V30 50 H 8.634841 1.391111 -14.544854 0
M  V30 51 H 7.626353 4.471748 -17.323602 0
M  V30 52 H 8.199623 6.109919 -17.421159 0
M  V30 53 H 3.947617 5.583225 -22.293509 0
M  V30 54 H 6.931725 5.696941 -15.310437 0
M  V30 55 H 7.567864 6.108369 -13.641122 0
M  V30 56 H 8.527795 4.751515 -20.760756 0
M  V30 57 H 4.989894 -0.195211 -17.167357 0
M  V30 58 H 5.649694 0.259453 -18.720075 0
M  V30 59 H 2.962061 8.969299 -21.307358 0
M  V30 60 H 3.983180 9.968654 -20.291663 0
M  V30 61 H 3.852953 10.308110 -22.008247 0
M  V30 62 H 6.634845 3.318531 -15.854402 0
M  V30 63 H 6.331807 2.637152 -14.291740 0
M  V30 64 H 6.764798 9.483569 -20.464928 0
M  V30 65 H 6.460666 10.210253 -22.023019 0
M  V30 66 H 6.339905 0.113069 -13.763590 0
M  V30 67 H 5.760957 -1.030667 -15.096230 0
M  V30 68 H 3.933344 -2.345756 -18.291672 0
M  V30 69 H 5.023024 -3.718133 -18.059551 0
M  V30 70 H 4.702103 -2.618150 -16.716960 0
M  V30 71 H 8.195230 8.923227 -22.848663 0
M  V30 72 H 8.151783 3.722451 -13.233915 0
M  V30 73 H 9.793481 5.153657 -14.177241 0
M  V30 74 H 8.732820 7.369300 -19.363735 0
M  V30 75 H 7.354479 5.202840 -19.708872 0
M  V30 END ATOM
M  V30 BEGIN BOND
M  V30 1 1 9 7
M  V30 2 1 11 10
M  V30 3 1 12 5 CFG=1
M  V30 4 1 13 7
M  V30 5 1 13 8 CFG=1
M  V30 6 1 13 9
M  V30 7 1 14 1
M  V30 8 1 14 3
M  V30 9 1 15 6
M  V30 10 1 15 12
M  V30 11 1 16 2
M  V30 12 1 16 4 CFG=3
M  V30 13 1 18 13
M  V30 14 1 19 1
M  V30 15 2 20 18
M  V30 16 1 21 2
M  V30 17 1 21 6
M  V30 18 1 21 12 CFG=1
M  V30 19 1 21 15
M  V30 20 1 22 9
M  V30 21 1 24 10
M  V30 22 1 26 11
M  V30 23 1 26 18
M  V30 24 1 26 22
M  V30 25 2 27 11
M  V30 26 1 9 28 CFG=1
M  V30 27 1 29 2
M  V30 28 1 29 16
M  V30 29 1 29 25
M  V30 30 1 30 17
M  V30 31 1 30 24
M  V30 32 1 31 10
M  V30 33 1 32 3
M  V30 34 1 32 17
M  V30 35 1 32 30
M  V30 36 1 33 6
M  V30 37 1 33 12
M  V30 38 1 33 23 CFG=1
M  V30 39 1 33 25
M  V30 40 1 26 34 CFG=3
M  V30 41 1 34 31
M  V30 42 1 35 4
M  V30 43 1 35 16
M  V30 44 1 35 19
M  V30 45 1 36 1
M  V30 46 1 37 1
M  V30 47 1 2 38 CFG=3
M  V30 48 1 39 3
M  V30 49 1 40 3
M  V30 50 1 41 4
M  V30 51 1 42 4
M  V30 52 1 43 5
M  V30 53 1 44 5
M  V30 54 1 45 5
M  V30 55 1 6 46 CFG=3
M  V30 56 1 47 7
M  V30 57 1 48 7
M  V30 58 1 49 8
M  V30 59 1 10 50 CFG=1
M  V30 60 1 51 14
M  V30 61 1 52 14
M  V30 62 1 15 53 CFG=1
M  V30 63 1 54 17
M  V30 64 1 55 17
M  V30 65 1 56 19
M  V30 66 1 57 22
M  V30 67 1 58 22
M  V30 68 1 59 23
M  V30 69 1 60 23
M  V30 70 1 61 23
M  V30 71 1 62 24
M  V30 72 1 63 24
M  V30 73 1 64 25
M  V30 74 1 65 25
M  V30 75 1 66 27
M  V30 76 1 67 27
M  V30 77 1 68 28
M  V30 78 1 69 28
M  V30 79 1 70 28
M  V30 80 1 29 71 CFG=3
M  V30 81 1 30 72 CFG=1
M  V30 82 1 32 73 CFG=1
M  V30 83 1 35 74 CFG=1
M  V30 84 1 75 19
M  V30 END BOND
M  V30 END CTAB
M  END
>  <i_epik_Tot_Q>  (1) 
1

>  <i_epik_Tot_abs_Q>  (1) 
1

>  <i_i_glide_confnum>  (1) 
214

>  <i_i_glide_lignum>  (1) 
159

>  <i_i_glide_posenum>  (1) 
250

>  <i_i_glide_rotatable_bonds>  (1) 
8

>  <i_lp_mmshare_version>  (1) 
72125

>  <i_m_source_file_index>  (1) 
79

>  <i_f3d_flags>  (1) 
2

>  <num_sample>  (1) 
100

>  <b_lp_Chiralities_Consistent>  (1) 
0

>  <r_epik_Charging_Adjusted_Penalty>  (1) 
0.013403952672872374

>  <r_epik_Ionization_Penalty>  (1) 
0.0067020061750241401

>  <r_epik_Ionization_Penalty_Charging>  (1) 
0.0067019763364361854

>  <r_epik_Ionization_Penalty_Neutral>  (1) 
2.9838587954806154e-08

>  <r_epik_State_Penalty>  (1) 
0.0067019763364361889

>  <r_glide_ring_energy>  (1) 
0.40288230367583672

>  <r_i_docking_score>  (1) 
-4.3326711402403779

>  <r_i_glide_ecoul>  (1) 
-7.1796474396516841

>  <r_i_glide_eff_state_penalty>  (1) 
0.0067019763364361889

>  <r_i_glide_einternal>  (1) 
12.04930632439188

>  <r_i_glide_emodel>  (1) 
-30.452336393243733

>  <r_i_glide_emodel_strain>  (1) 
0.28414639758955218

>  <r_i_glide_energy>  (1) 
-34.190174465342594

>  <r_i_glide_erotb>  (1) 
0.61918083284399961

>  <r_i_glide_esite>  (1) 
-0.024862375884752111

>  <r_i_glide_evdw>  (1) 
-27.010527025690912

>  <r_i_glide_gscore>  (1) 
-4.3393731165768141

>  <r_i_glide_gscore_strain>  (1) 
0

>  <r_i_glide_hbond>  (1) 
-0.32000000000000001

>  <r_i_glide_ligand_efficiency>  (1) 
-0.12379060400686794

>  <r_i_glide_ligand_efficiency_ln>  (1) 
-0.95111747373784017

>  <r_i_glide_ligand_efficiency_sa>  (1) 
-0.40492727428476244

>  <r_i_glide_lipo>  (1) 
-1.9599771336823226

>  <r_i_glide_metal>  (1) 
-0

>  <r_i_glide_rewards>  (1) 
-0.22624097262144174

>  <r_lp_Energy>  (1) 
113.50332999999999

>  <s_epik_cmdline>  (1) 
J2VwaWtfcHl0aG9uJywgJy1waHQnLCAnMS4wJywgJy1waCcsICc3LjQnLCAnLXRuJywgJzgnLCAnLW1hJywgJzUwMCcsICctaW1hZScsICc8aW5maWxlLm1hZT4nLCAnLW9tYWUnLCAnPG91dGZpbGUubWFlPic=

>  <s_epik_input>  (1) 
W0NASF0xMltDSDJdQzMoW0NIM10pQzQoW0NIM10pW0NIXTVbQ0hdM0M0NVtDQEhdMVtDQF0yNltDSDJdW0NAQEhdNltOSF1bQ0gyXVtDSDJdW0NIMl1bQ0BIXTdbQ0gyXVtDQEhdN1tDSDJdW0NASF0oT084KUMoPVtDSDJdKVtDQF04OUMoPU8pW0NAXTEoW09IXSlbQ0BdKFtDSDJdMSkoW0NIMl05KVtDSDNd

>  <s_glide_docking_method>  (1) 
confgen

>  <s_i_glide_gridfile>  (1) 
gpcr_drd2_6luq_protein_autoprepared_prepared

>  <s_lp_Force_Field>  (1) 
S-OPLS

>  <s_lp_Variant>  (1) 
DiffSBDD_78_num_sample_100-1

>  <s_m_source_file>  (1) 
generated__ligand_DiffSBDD_2026-05-06_prepared.sdf

>  <GenAI_Model>  (1) 
DiffSBDD

>  <Protein>  (1) 
generic_title2

$$$$
DiffSBDD_82_num_sample_100
     RDKit          3D

  0  0  0  0  0  0  0  0  0  0999 V3000
M  V30 BEGIN CTAB
M  V30 COUNTS 64 68 0 0 1
M  V30 BEGIN ATOM
M  V30 1 C 9.904765 7.018822 -7.285930 0
M  V30 2 N 5.796733 -0.124004 -17.834937 0
M  V30 3 C 7.556314 4.770745 -11.093314 0
M  V30 4 C 10.990309 7.190771 -10.027236 0
M  V30 5 O 10.382873 6.496798 -12.691249 0
M  V30 6 C 10.819548 8.049095 -7.941316 0
M  V30 7 O 6.128989 1.196059 -19.651557 0
M  V30 8 C 8.038302 3.476382 -14.050883 0 CFG=2
M  V30 9 C 7.195508 1.007842 -13.637570 0
M  V30 10 C 7.846234 2.552477 -18.650899 0
M  V30 11 F 10.864994 8.008362 -5.311035 0
M  V30 12 C 7.173863 0.889822 -16.235494 0 CFG=1
M  V30 13 C 8.262513 1.980623 -16.203055 0 CFG=1
M  V30 14 F 9.373168 0.923276 -17.982552 0
M  V30 15 C 8.874800 2.105853 -17.618146 0
M  V30 16 F 8.330771 5.369308 -7.080344 0
M  V30 17 C 8.050969 4.980759 -13.587564 0 CFG=1
M  V30 18 C 9.795242 6.339109 -10.376716 0
M  V30 19 C 6.755269 5.732527 -13.951010 0
M  V30 20 C 8.932381 5.829646 -9.363409 0
M  V30 21 C 9.536098 6.034306 -11.738411 0
M  V30 22 O 9.902683 7.108901 -5.919281 0
M  V30 23 C 5.753858 0.009578 -19.101819 0
M  V30 24 C 6.454941 1.934505 -18.526387 0 CFG=2
M  V30 25 C 7.847166 3.347097 -15.590448 0
M  V30 26 C 8.396318 5.258363 -12.100212 0
M  V30 27 C 5.318555 -1.051896 -20.059734 0
M  V30 28 C 6.458955 0.569654 -14.908164 0
M  V30 29 N 6.240348 1.057727 -17.354989 0
M  V30 30 C 8.137401 3.452428 -19.606838 0
M  V30 31 C 9.094102 6.102000 -7.891399 0
M  V30 32 C 7.070638 2.512544 -13.327803 0
M  V30 33 F 9.907519 2.950221 -17.560983 0
M  V30 34 C 7.834433 5.027374 -9.749502 0
M  V30 35 N 10.591599 8.365034 -9.322066 0
M  V30 36 H 6.681051 4.200224 -11.348826 0
M  V30 37 H 11.495219 7.541891 -10.924315 0
M  V30 38 H 11.746615 6.625550 -9.488476 0
M  V30 39 H 10.358087 5.989140 -13.489102 0
M  V30 40 H 10.647584 8.988620 -7.415181 0
M  V30 41 H 11.863767 7.794499 -7.746121 0
M  V30 42 H 9.034170 3.155812 -13.759638 0
M  V30 43 H 6.746671 0.464010 -12.804748 0
M  V30 44 H 8.240068 0.692351 -13.651498 0
M  V30 45 H 7.735757 -0.022085 -16.450382 0
M  V30 46 H 9.034545 1.571205 -15.567750 0
M  V30 47 H 8.818076 5.449961 -14.198598 0
M  V30 48 H 6.843010 6.788825 -13.688735 0
M  V30 49 H 5.891487 5.329932 -13.420974 0
M  V30 50 H 6.544908 5.692971 -15.019103 0
M  V30 51 H 5.742039 2.755246 -18.441687 0
M  V30 52 H 8.437947 4.129849 -16.066503 0
M  V30 53 H 6.815754 3.567987 -15.861275 0
M  V30 54 H 5.700094 -2.030692 -19.767435 0
M  V30 55 H 5.665928 -0.839958 -21.071698 0
M  V30 56 H 4.233728 -1.106572 -20.074949 0
M  V30 57 H 5.447720 0.969640 -14.897898 0
M  V30 58 H 6.317484 -0.512267 -14.870091 0
M  V30 59 H 9.122196 3.887613 -19.683079 0
M  V30 60 H 7.393953 3.759861 -20.326213 0
M  V30 61 H 7.329944 2.542450 -12.291362 0
M  V30 62 H 6.036719 2.847339 -13.415507 0
M  V30 63 H 7.168991 4.639458 -8.997468 0
M  V30 64 H 9.597301 8.513524 -9.465260 0
M  V30 END ATOM
M  V30 BEGIN BOND
M  V30 1 1 6 1
M  V30 2 1 13 12
M  V30 3 1 15 10
M  V30 4 1 15 13
M  V30 5 1 15 14
M  V30 6 1 17 8
M  V30 7 1 18 4
M  V30 8 1 19 17
M  V30 9 2 20 18
M  V30 10 1 21 5
M  V30 11 1 21 18
M  V30 12 1 22 1
M  V30 13 1 22 11
M  V30 14 2 23 2
M  V30 15 1 23 7
M  V30 16 1 24 7
M  V30 17 1 24 10
M  V30 18 1 25 8
M  V30 19 1 25 13
M  V30 20 1 26 3
M  V30 21 1 26 17
M  V30 22 2 26 21
M  V30 23 1 27 23
M  V30 24 1 28 9
M  V30 25 1 28 12
M  V30 26 1 29 2
M  V30 27 1 29 12
M  V30 28 1 29 24
M  V30 29 2 30 10
M  V30 30 2 31 1
M  V30 31 1 31 16
M  V30 32 1 31 20
M  V30 33 1 32 8
M  V30 34 1 32 9
M  V30 35 1 33 15
M  V30 36 2 34 3
M  V30 37 1 34 20
M  V30 38 1 35 4
M  V30 39 1 35 6
M  V30 40 1 36 3
M  V30 41 1 37 4
M  V30 42 1 38 4
M  V30 43 1 39 5
M  V30 44 1 40 6
M  V30 45 1 41 6
M  V30 46 1 8 42 CFG=3
M  V30 47 1 43 9
M  V30 48 1 44 9
M  V30 49 1 12 45 CFG=3
M  V30 50 1 13 46 CFG=1
M  V30 51 1 17 47 CFG=3
M  V30 52 1 48 19
M  V30 53 1 49 19
M  V30 54 1 50 19
M  V30 55 1 24 51 CFG=1
M  V30 56 1 52 25
M  V30 57 1 53 25
M  V30 58 1 54 27
M  V30 59 1 55 27
M  V30 60 1 56 27
M  V30 61 1 57 28
M  V30 62 1 58 28
M  V30 63 1 59 30
M  V30 64 1 60 30
M  V30 65 1 61 32
M  V30 66 1 62 32
M  V30 67 1 63 34
M  V30 68 1 64 35
M  V30 END BOND
M  V30 END CTAB
M  END
>  <i_epik_Tot_Q>  (1) 
0

>  <i_epik_Tot_abs_Q>  (1) 
0

>  <i_i_glide_confnum>  (1) 
4

>  <i_i_glide_lignum>  (1) 
167

>  <i_i_glide_posenum>  (1) 
58

>  <i_i_glide_rotatable_bonds>  (1) 
4

>  <i_lp_mmshare_version>  (1) 
72125

>  <i_m_source_file_index>  (1) 
83

>  <i_f3d_flags>  (1) 
0

>  <num_sample>  (1) 
100

>  <b_lp_Chiralities_Consistent>  (1) 
1

>  <r_epik_Charging_Adjusted_Penalty>  (1) 
0.046558445642634526

>  <r_epik_Ionization_Penalty>  (1) 
0.046507495434493687

>  <r_epik_Ionization_Penalty_Charging>  (1) 
0

>  <r_epik_Ionization_Penalty_Neutral>  (1) 
0.046507495434493687

>  <r_epik_State_Penalty>  (1) 
0.046558445642634526

>  <r_glide_ring_energy>  (1) 
0

>  <r_i_docking_score>  (1) 
-4.3289769299514758

>  <r_i_glide_ecoul>  (1) 
-1.6861459886476835

>  <r_i_glide_eff_state_penalty>  (1) 
0.046558445642634526

>  <r_i_glide_einternal>  (1) 
2.2842847115914022

>  <r_i_glide_emodel>  (1) 
-36.16524815003077

>  <r_i_glide_emodel_strain>  (1) 
1.2605260253207149

>  <r_i_glide_energy>  (1) 
-31.466169630233477

>  <r_i_glide_erotb>  (1) 
0.1660487774470758

>  <r_i_glide_esite>  (1) 
-0.063794389788304859

>  <r_i_glide_evdw>  (1) 
-29.780023641585792

>  <r_i_glide_gscore>  (1) 
-4.3755353755941107

>  <r_i_glide_gscore_strain>  (1) 
0

>  <r_i_glide_hbond>  (1) 
0

>  <r_i_glide_ligand_efficiency>  (1) 
-0.12368505514147074

>  <r_i_glide_ligand_efficiency_ln>  (1) 
-0.9503065125908462

>  <r_i_glide_ligand_efficiency_sa>  (1) 
-0.40458201694708301

>  <r_i_glide_lipo>  (1) 
-1.4149676597627359

>  <r_i_glide_metal>  (1) 
-0

>  <r_i_glide_rewards>  (1) 
-1.3208990231137034

>  <r_lp_Energy>  (1) 
60.372588

>  <r_lp_tautomer_probability>  (1) 
0.99999999486000002

>  <s_epik_Chemistry_Notes>  (1) 
This compound has an imine and may undergo hydrolysis. This compound contains an acetal/aminal-like group ( X-CH(R)-Y where X, Y are N, S, or O) that may be acid/base labile, releasing an aldehyde.

>  <s_epik_cmdline>  (1) 
J2VwaWtfcHl0aG9uJywgJy1waHQnLCAnMS4wJywgJy1waCcsICc3LjQnLCAnLXRuJywgJzgnLCAnLW1hJywgJzUwMCcsICctaW1hZScsICc8aW5maWxlLm1hZT4nLCAnLW9tYWUnLCAnPG91dGZpbGUubWFlPic=

>  <s_epik_input>  (1) 
W0NIMl0xW05IXVtDSDJdQyhPRik9QyhGKWMoYzEyKVtjSF1bY0hdYyhjMltPSF0pW0NASF0oW0NIM10pW0NAQEhdKFtDSDJdW0NIMl1bQ0gyXTMpW0NIMl1bQ0BASF0oW0NAQEhdMzQpQyhGKShGKUMoPVtDSDJdKVtDQEBIXTVONE49QyhPNSlbQ0gzXQ==

>  <s_glide_docking_method>  (1) 
confgen

>  <s_i_glide_gridfile>  (1) 
gpcr_drd2_6luq_protein_autoprepared_prepared

>  <s_lp_Force_Field>  (1) 
S-OPLS

>  <s_lp_Variant>  (1) 
DiffSBDD_82_num_sample_100-1

>  <s_m_source_file>  (1) 
generated__ligand_DiffSBDD_2026-05-06_prepared.sdf

>  <GenAI_Model>  (1) 
DiffSBDD

>  <Protein>  (1) 
generic_title2

$$$$
DiffSBDD_56_num_sample_100
     RDKit          3D

  0  0  0  0  0  0  0  0  0  0999 V3000
M  V30 BEGIN CTAB
M  V30 COUNTS 69 75 0 0 1
M  V30 BEGIN ATOM
M  V30 1 O 6.388867 6.289737 -18.963999 0
M  V30 2 C 11.653293 8.414920 -7.769945 0
M  V30 3 C 11.436583 5.959793 -5.657549 0
M  V30 4 C 9.496587 6.644491 -7.236020 0
M  V30 5 C 8.634716 4.017145 -14.309729 0 CFG=2
M  V30 6 C 9.835579 6.562674 -9.790979 0
M  V30 7 F 9.864028 4.739276 -8.392721 0
M  V30 8 C 8.100668 4.861157 -17.985041 0
M  V30 9 C 10.577541 7.251986 -12.123115 0 CFG=1
M  V30 10 C 6.967750 5.707479 -17.841820 0
M  V30 11 C 12.231205 8.607519 -8.917599 0
M  V30 12 C 8.665028 6.075386 -12.923860 0 CFG=1
M  V30 13 C 11.439563 6.569079 -13.093558 0
M  V30 14 N 7.869270 4.916284 -13.358322 0
M  V30 15 C 11.698462 9.143847 -5.398672 0
M  V30 16 C 10.235646 6.020120 -8.442091 0 CFG=2
M  V30 17 C 7.060155 5.336677 -15.438559 0
M  V30 18 C 5.220163 7.137532 -18.865974 0
M  V30 19 C 5.295327 6.813112 -16.396520 0
M  V30 20 C 11.281827 8.210808 -6.527527 0
M  V30 21 C 8.680429 4.587062 -19.357496 0
M  V30 22 C 6.622452 5.490055 -14.035683 0
M  V30 23 C 8.026140 6.619652 -11.625919 0
M  V30 24 C 4.719129 7.366543 -17.455229 0
M  V30 25 C 8.634895 6.169376 -10.289004 0
M  V30 26 C 6.441139 5.950488 -16.546056 0
M  V30 27 C 10.354555 6.444043 -4.765926 0
M  V30 28 C 10.148406 5.883735 -12.639467 0 CFG=1
M  V30 29 O 12.234814 10.350274 -5.891606 0
M  V30 30 C 10.770229 7.362130 -10.670198 0
M  V30 31 C 8.120845 4.550067 -15.578955 0
M  V30 32 C 8.223073 2.556616 -14.053349 0
M  V30 33 C 11.822905 8.162536 -10.261384 0
M  V30 34 C 8.684592 4.277277 -16.835626 0
M  V30 35 C 10.489607 7.037101 -6.157274 0
M  V30 36 H 11.435752 5.092043 -6.292559 0
M  V30 37 H 12.407595 6.169394 -5.249742 0
M  V30 38 H 8.925276 7.524815 -7.537359 0
M  V30 39 H 8.757540 5.955326 -6.824044 0
M  V30 40 H 9.710036 4.169512 -14.256920 0
M  V30 41 H 10.093751 8.143494 -12.518910 0
M  V30 42 H 13.051532 9.303016 -8.922728 0
M  V30 43 H 8.582238 6.833801 -13.697892 0
M  V30 44 H 12.370524 6.173361 -12.694265 0
M  V30 45 H 11.497848 6.897184 -14.122281 0
M  V30 46 H 12.407072 8.663470 -4.722475 0
M  V30 47 H 10.815446 9.396214 -4.811513 0
M  V30 48 H 11.312753 5.976617 -8.349055 0
M  V30 49 H 5.452505 8.105087 -19.311153 0
M  V30 50 H 4.419051 6.697595 -19.458420 0
M  V30 51 H 4.921919 6.997494 -15.405108 0
M  V30 52 H 9.564874 3.952552 -19.297687 0
M  V30 53 H 7.941529 4.085734 -19.983146 0
M  V30 54 H 8.962929 5.521749 -19.842198 0
M  V30 55 H 5.757572 4.852459 -13.849718 0
M  V30 56 H 6.386599 6.520081 -13.764307 0
M  V30 57 H 6.959890 6.396947 -11.566210 0
M  V30 58 H 8.043312 7.710030 -11.633005 0
M  V30 59 H 3.861908 8.011092 -17.332956 0
M  V30 60 H 7.999986 5.540445 -9.682485 0
M  V30 61 H 10.727724 6.969413 -3.895742 0
M  V30 62 H 9.531487 5.770014 -4.575045 0
M  V30 63 H 10.340972 5.002154 -12.030034 0
M  V30 64 H 13.074169 10.163021 -6.284677 0
M  V30 65 H 8.587582 1.887685 -14.834497 0
M  V30 66 H 8.619255 2.205540 -13.099021 0
M  V30 67 H 7.138764 2.450394 -14.019409 0
M  V30 68 H 12.400612 8.592012 -11.061824 0
M  V30 69 H 9.548795 3.635100 -16.921766 0
M  V30 END ATOM
M  V30 BEGIN BOND
M  V30 1 1 10 1
M  V30 2 1 10 8
M  V30 3 2 11 2
M  V30 4 1 13 9
M  V30 5 1 14 5
M  V30 6 1 14 12
M  V30 7 1 16 4
M  V30 8 1 16 6
M  V30 9 1 16 7
M  V30 10 1 18 1
M  V30 11 2 20 2
M  V30 12 1 20 15
M  V30 13 1 21 8
M  V30 14 1 22 14
M  V30 15 1 22 17
M  V30 16 1 23 12
M  V30 17 1 24 18
M  V30 18 2 24 19
M  V30 19 2 25 6
M  V30 20 1 25 23
M  V30 21 2 26 10
M  V30 22 1 26 17
M  V30 23 1 26 19
M  V30 24 1 27 3
M  V30 25 1 28 9
M  V30 26 1 28 12
M  V30 27 1 28 13
M  V30 28 1 29 15
M  V30 29 1 30 6
M  V30 30 1 30 9
M  V30 31 1 31 5
M  V30 32 2 31 17
M  V30 33 1 32 5
M  V30 34 1 33 11
M  V30 35 2 33 30
M  V30 36 2 34 8
M  V30 37 1 34 31
M  V30 38 1 35 3
M  V30 39 1 35 4
M  V30 40 1 35 20
M  V30 41 1 35 27
M  V30 42 1 36 3
M  V30 43 1 37 3
M  V30 44 1 38 4
M  V30 45 1 39 4
M  V30 46 1 5 40 CFG=3
M  V30 47 1 9 41 CFG=3
M  V30 48 1 42 11
M  V30 49 1 12 43 CFG=3
M  V30 50 1 44 13
M  V30 51 1 45 13
M  V30 52 1 46 15
M  V30 53 1 47 15
M  V30 54 1 16 48 CFG=1
M  V30 55 1 49 18
M  V30 56 1 50 18
M  V30 57 1 51 19
M  V30 58 1 52 21
M  V30 59 1 53 21
M  V30 60 1 54 21
M  V30 61 1 55 22
M  V30 62 1 56 22
M  V30 63 1 57 23
M  V30 64 1 58 23
M  V30 65 1 59 24
M  V30 66 1 60 25
M  V30 67 1 61 27
M  V30 68 1 62 27
M  V30 69 1 28 63 CFG=1
M  V30 70 1 64 29
M  V30 71 1 65 32
M  V30 72 1 66 32
M  V30 73 1 67 32
M  V30 74 1 68 33
M  V30 75 1 69 34
M  V30 END BOND
M  V30 END CTAB
M  END
>  <i_epik_Tot_Q>  (1) 
0

>  <i_epik_Tot_abs_Q>  (1) 
0

>  <i_i_glide_confnum>  (1) 
15

>  <i_i_glide_lignum>  (1) 
114

>  <i_i_glide_posenum>  (1) 
45

>  <i_i_glide_rotatable_bonds>  (1) 
3

>  <i_lp_mmshare_version>  (1) 
72125

>  <i_m_source_file_index>  (1) 
57

>  <i_f3d_flags>  (1) 
0

>  <num_sample>  (1) 
100

>  <b_lp_Chiralities_Consistent>  (1) 
1

>  <r_epik_Charging_Adjusted_Penalty>  (1) 
1.2909634030870925

>  <r_epik_Ionization_Penalty>  (1) 
1.2909642397240775

>  <r_epik_Ionization_Penalty_Charging>  (1) 
0

>  <r_epik_Ionization_Penalty_Neutral>  (1) 
1.2909642397240775

>  <r_epik_State_Penalty>  (1) 
1.2909634030870925

>  <r_glide_ring_energy>  (1) 
1.6773318086129168

>  <r_i_docking_score>  (1) 
-4.3272861335145665

>  <r_i_glide_ecoul>  (1) 
0.090332696712330685

>  <r_i_glide_eff_state_penalty>  (1) 
1.2909634030870925

>  <r_i_glide_einternal>  (1) 
3.1200771165474932

>  <r_i_glide_emodel>  (1) 
-19.186276073808099

>  <r_i_glide_emodel_strain>  (1) 
4.4387875745522649

>  <r_i_glide_energy>  (1) 
-19.888811986574332

>  <r_i_glide_erotb>  (1) 
0.18175884728826419

>  <r_i_glide_esite>  (1) 
0

>  <r_i_glide_evdw>  (1) 
-19.979144683286663

>  <r_i_glide_gscore>  (1) 
-5.6182495366016587

>  <r_i_glide_gscore_strain>  (1) 
0.10969689363806623

>  <r_i_glide_hbond>  (1) 
0

>  <r_i_glide_ligand_efficiency>  (1) 
-0.12363674667184475

>  <r_i_glide_ligand_efficiency_ln>  (1) 
-0.94993534524773948

>  <r_i_glide_ligand_efficiency_sa>  (1) 
-0.40442399673959267

>  <r_i_glide_lipo>  (1) 
-3.7089979065888707

>  <r_i_glide_metal>  (1) 
-0

>  <r_i_glide_rewards>  (1) 
-1.215300041281635

>  <r_lp_Energy>  (1) 
69.698508000000004

>  <s_epik_cmdline>  (1) 
J2VwaWtfcHl0aG9uJywgJy1waHQnLCAnMS4wJywgJy1waCcsICc3LjQnLCAnLXRuJywgJzgnLCAnLW1hJywgJzUwMCcsICctaW1hZScsICc8aW5maWxlLm1hZT4nLCAnLW9tYWUnLCAnPG91dGZpbGUubWFlPic=

>  <s_epik_input>  (1) 
TzFbQ0gyXVtDSF09W0NIXWMoYzEyKWMzYyhbY0hdYzJbQ0gzXSlbQ0BIXShbQ0gzXSlOKFtDSDJdMylbQ0BASF0oW0NIMl1bQ0hdNClbQ0BASF0oW0NIMl01KVtDQEhdNUMoXEM9NFtDQEhdKEYpW0NIMl1DNjdbQ0gyXVtDSDJdNyk9W0NIXVxbQ0hdPUM9QzZbQ0gyXVtPSF0=

>  <s_glide_docking_method>  (1) 
confgen

>  <s_i_glide_gridfile>  (1) 
gpcr_drd2_6luq_protein_autoprepared_prepared

>  <s_lp_Force_Field>  (1) 
S-OPLS

>  <s_lp_Variant>  (1) 
DiffSBDD_56_num_sample_100-3

>  <s_m_source_file>  (1) 
generated__ligand_DiffSBDD_2026-05-06_prepared.sdf

>  <GenAI_Model>  (1) 
DiffSBDD

>  <Protein>  (1) 
generic_title2

$$$$
DiffSBDD_77_num_sample_100
     RDKit          3D

  0  0  0  0  0  0  0  0  0  0999 V3000
M  V30 BEGIN CTAB
M  V30 COUNTS 44 46 0 0 1
M  V30 BEGIN ATOM
M  V30 1 C 7.010488 5.603988 -13.202697 0
M  V30 2 C 9.515246 7.305805 -10.953653 0 CFG=1
M  V30 3 N 9.834837 7.465355 -9.534645 0
M  V30 4 S 7.834732 2.956971 -13.237359 0
M  V30 5 C 8.664415 6.071551 -11.213895 0 CFG=1
M  V30 6 C 8.257219 6.340944 -12.657055 0 CFG=2
M  V30 7 O 7.185540 1.827325 -18.669925 0
M  V30 8 C 11.076447 7.696470 -9.080017 0
M  V30 9 C 8.430856 2.427611 -18.831972 0 CFG=1
M  V30 10 C 6.249666 2.710057 -19.273313 0
M  V30 11 O 8.015242 7.742513 -12.673966 0
M  V30 12 N 8.634836 8.325431 -11.491667 0
M  V30 13 C 7.040785 4.012593 -19.428009 0 CFG=2
M  V30 14 C 7.153856 1.584466 -14.205969 0
M  V30 15 C 7.283847 4.422190 -14.162668 0 CFG=2
M  V30 16 F 6.024580 5.356332 -17.775035 0
M  V30 17 O 8.297907 3.458292 -19.748809 0
M  V30 18 O 11.249618 7.830226 -7.850404 0 CHG=-1
M  V30 19 S 8.310006 4.969305 -15.570974 0
M  V30 20 O 9.434839 4.897867 -11.106610 0
M  V30 21 C 7.748372 3.957652 -16.971440 0 CFG=2
M  V30 22 C 8.876523 3.049792 -17.490932 0
M  V30 23 C 7.200581 4.831967 -18.124030 0
M  V30 24 O 12.025830 7.769568 -9.891934 0
M  V30 25 F 8.037800 5.838954 -18.382330 0
M  V30 26 H 6.370887 5.286327 -12.378517 0
M  V30 27 H 6.413714 6.328289 -13.758669 0
M  V30 28 H 10.406501 7.277078 -11.584640 0
M  V30 29 H 9.073563 7.409140 -8.872266 0
M  V30 30 H 7.800960 6.025034 -10.549525 0
M  V30 31 H 9.123875 6.169300 -13.295266 0
M  V30 32 H 9.156843 1.700252 -19.196803 0
M  V30 33 H 5.979019 2.313271 -20.252623 0
M  V30 34 H 5.336149 2.821483 -18.691665 0
M  V30 35 H 7.867933 8.382868 -10.816459 0
M  V30 36 H 6.659470 4.633092 -20.239669 0
M  V30 37 H 7.379077 0.638787 -13.712652 0
M  V30 38 H 6.071935 1.672799 -14.291560 0
M  V30 39 H 7.585565 1.553383 -15.203509 0
M  V30 40 H 6.309229 4.160397 -14.574719 0
M  V30 41 H 9.816722 4.881480 -10.241348 0
M  V30 42 H 6.950048 3.312407 -16.612546 0
M  V30 43 H 9.792927 3.616105 -17.660592 0
M  V30 44 H 9.106674 2.255842 -16.781204 0
M  V30 END ATOM
M  V30 BEGIN BOND
M  V30 1 1 3 2
M  V30 2 1 5 2
M  V30 3 1 6 1
M  V30 4 1 6 5
M  V30 5 1 8 3
M  V30 6 1 9 7
M  V30 7 1 10 7
M  V30 8 1 11 6
M  V30 9 1 12 2
M  V30 10 1 12 11
M  V30 11 1 13 10
M  V30 12 1 14 4
M  V30 13 1 15 1
M  V30 14 1 15 4
M  V30 15 1 17 9
M  V30 16 1 17 13
M  V30 17 1 18 8
M  V30 18 1 19 15
M  V30 19 1 20 5
M  V30 20 1 21 19
M  V30 21 1 22 9
M  V30 22 1 22 21
M  V30 23 1 23 13
M  V30 24 1 23 16
M  V30 25 1 23 21
M  V30 26 2 24 8
M  V30 27 1 25 23
M  V30 28 1 26 1
M  V30 29 1 27 1
M  V30 30 1 2 28 CFG=3
M  V30 31 1 29 3
M  V30 32 1 5 30 CFG=1
M  V30 33 1 6 31 CFG=3
M  V30 34 1 9 32 CFG=3
M  V30 35 1 33 10
M  V30 36 1 34 10
M  V30 37 1 35 12
M  V30 38 1 13 36 CFG=3
M  V30 39 1 37 14
M  V30 40 1 38 14
M  V30 41 1 39 14
M  V30 42 1 15 40 CFG=3
M  V30 43 1 41 20
M  V30 44 1 21 42 CFG=1
M  V30 45 1 43 22
M  V30 46 1 44 22
M  V30 END BOND
M  V30 END CTAB
M  END
>  <i_epik_Tot_Q>  (1) 
-1

>  <i_epik_Tot_abs_Q>  (1) 
1

>  <i_i_glide_confnum>  (1) 
163

>  <i_i_glide_lignum>  (1) 
158

>  <i_i_glide_posenum>  (1) 
205

>  <i_i_glide_rotatable_bonds>  (1) 
8

>  <i_lp_mmshare_version>  (1) 
72125

>  <i_m_source_file_index>  (1) 
78

>  <i_f3d_flags>  (1) 
0

>  <num_sample>  (1) 
100

>  <b_lp_Chiralities_Consistent>  (1) 
1

>  <r_epik_Charging_Adjusted_Penalty>  (1) 
0.0018659666509244193

>  <r_epik_Ionization_Penalty>  (1) 
0.0021781486112202567

>  <r_epik_Ionization_Penalty_Charging>  (1) 
0.0018659666509244193

>  <r_epik_Ionization_Penalty_Neutral>  (1) 
0.00031218196029583734

>  <r_epik_State_Penalty>  (1) 
-0

>  <r_glide_ring_energy>  (1) 
0.18076742027696574

>  <r_i_docking_score>  (1) 
-4.3214090395199758

>  <r_i_glide_ecoul>  (1) 
-4.8727612464605521

>  <r_i_glide_eff_state_penalty>  (1) 
-0

>  <r_i_glide_einternal>  (1) 
7.200847223964205

>  <r_i_glide_emodel>  (1) 
-29.764512992662219

>  <r_i_glide_emodel_strain>  (1) 
3.7047495035533231

>  <r_i_glide_energy>  (1) 
-29.678932815936665

>  <r_i_glide_erotb>  (1) 
0.48685992460838567

>  <r_i_glide_esite>  (1) 
-0.33330067878124486

>  <r_i_glide_evdw>  (1) 
-24.806171569476113

>  <r_i_glide_gscore>  (1) 
-4.3214090395199758

>  <r_i_glide_gscore_strain>  (1) 
0

>  <r_i_glide_hbond>  (1) 
-0.19825940542969608

>  <r_i_glide_ligand_efficiency>  (1) 
-0.17285636158079903

>  <r_i_glide_ligand_efficiency_ln>  (1) 
-1.0243034445449644

>  <r_i_glide_ligand_efficiency_sa>  (1) 
-0.5054350674251934

>  <r_i_glide_lipo>  (1) 
-0.94787733458503709

>  <r_i_glide_metal>  (1) 
-0

>  <r_i_glide_rewards>  (1) 
-1.357608779889494

>  <r_lp_Energy>  (1) 
-9.4210519999999995

>  <r_lp_tautomer_probability>  (1) 
1

>  <s_epik_Chemistry_Notes>  (1) 
This compound contains an acetal/aminal-like group ( X-CH(R)-Y where X, Y are N, S, or O) that may be acid/base labile, releasing an aldehyde. This compound has a N-S or N-O group and may undergo hydrolysis at high or low pH.

>  <s_epik_cmdline>  (1) 
J2VwaWtfcHl0aG9uJywgJy1waHQnLCAnMS4wJywgJy1waCcsICc3LjQnLCAnLXRuJywgJzgnLCAnLW1hJywgJzUwMCcsICctaW1hZScsICc8aW5maWxlLm1hZT4nLCAnLW9tYWUnLCAnPG91dGZpbGUubWFlPic=

>  <s_epik_input>  (1) 
W09IXUMoPU8pW05IXVtDQEhdMVtDQEhdKFtPSF0pW0NASF0oT1tOSF0xKVtDSDJdW0NASF0oU1tDSDNdKVNbQ0BIXShbQ0gyXTIpQyhGKShGKVtDQEBIXShPMylbQ0gyXU9bQ0BIXTIz

>  <s_glide_docking_method>  (1) 
confgen

>  <s_i_glide_gridfile>  (1) 
gpcr_drd2_6luq_protein_autoprepared_prepared

>  <s_lp_Force_Field>  (1) 
S-OPLS

>  <s_lp_Variant>  (1) 
DiffSBDD_77_num_sample_100-1

>  <s_m_source_file>  (1) 
generated__ligand_DiffSBDD_2026-05-06_prepared.sdf

>  <GenAI_Model>  (1) 
DiffSBDD

>  <Protein>  (1) 
generic_title2

$$$$
DiffSBDD_34_num_sample_100
     RDKit          3D

  0  0  0  0  0  0  0  0  0  0999 V3000
M  V30 BEGIN CTAB
M  V30 COUNTS 60 63 0 0 1
M  V30 BEGIN ATOM
M  V30 1 N 7.863637 3.366369 -16.956889 0
M  V30 2 C 6.109209 3.784348 -13.566109 0 CFG=1
M  V30 3 C 10.696531 7.369203 -10.002725 0
M  V30 4 C 9.834837 7.222511 -8.887376 0
M  V30 5 C 7.168833 1.333401 -13.868866 0
M  V30 6 C 12.369134 7.677132 -2.787451 0
M  V30 7 C 6.814112 2.532970 -12.931976 0
M  V30 8 C 7.535156 1.930468 -15.176717 0
M  V30 9 C 11.834831 9.094539 -6.158337 0
M  V30 10 N 11.434850 8.505123 -4.994087 0
M  V30 11 C 9.034902 5.970910 -11.448284 0
M  V30 12 C 12.281919 8.576708 -8.603223 0
M  V30 13 C 11.917784 8.043853 -9.850655 0
M  V30 14 C 11.428982 8.443113 -7.484188 0
M  V30 15 O 10.915320 7.191715 -5.092040 0
M  V30 16 C 6.049975 4.934597 -12.553503 0
M  V30 17 C 11.835227 8.855591 -3.622602 0
M  V30 18 C 5.965006 0.383120 -14.002058 0
M  V30 19 C 10.192013 7.762266 -7.636455 0
M  V30 20 C 8.280920 2.124362 -17.193361 0
M  V30 21 C 6.943748 6.103993 -13.000333 0 CFG=2
M  V30 22 O 7.859567 8.093217 -11.891700 0
M  V30 23 C 7.373931 3.215117 -15.627420 0
M  V30 24 O 12.522215 10.109972 -6.166666 0
M  V30 25 S 7.979110 5.547086 -14.383932 0
M  V30 26 C 10.308540 6.817045 -11.380970 0
M  V30 27 C 8.348625 0.569231 -13.257667 0
M  V30 28 C 7.721022 6.689568 -11.810777 0 CFG=2
M  V30 29 N 8.116325 1.260414 -16.213533 0
M  V30 30 C 6.749654 4.335184 -14.874107 0 CFG=2
M  V30 31 O 9.059635 4.763052 -11.214299 0
M  V30 32 H 5.089720 3.479732 -13.785011 0
M  V30 33 H 8.889566 6.712881 -8.991099 0
M  V30 34 H 12.748251 8.026551 -1.826729 0
M  V30 35 H 13.186480 7.167646 -3.295098 0
M  V30 36 H 11.585309 6.946304 -2.581432 0
M  V30 37 H 7.749491 2.904905 -12.512279 0
M  V30 38 H 6.234847 2.179597 -12.079001 0
M  V30 39 H 13.220646 9.097816 -8.503460 0
M  V30 40 H 12.577303 8.161681 -10.697984 0
M  V30 41 H 11.071514 6.958640 -5.996983 0
M  V30 42 H 5.034832 5.303034 -12.448176 0
M  V30 43 H 6.319382 4.578489 -11.558620 0
M  V30 44 H 12.635134 9.597304 -3.676385 0
M  V30 45 H 11.034784 9.370228 -3.103142 0
M  V30 46 H 5.705335 -0.066796 -13.042963 0
M  V30 47 H 6.173496 -0.434441 -14.693333 0
M  V30 48 H 5.080251 0.905675 -14.360474 0
M  V30 49 H 9.502656 7.675310 -6.810251 0
M  V30 50 H 8.727459 1.841226 -18.135185 0
M  V30 51 H 6.285131 6.872715 -13.408725 0
M  V30 52 H 7.654327 8.396161 -11.006394 0
M  V30 53 H 8.370413 0.283090 -16.228059 0
M  V30 54 H 11.118493 6.214511 -11.789090 0
M  V30 55 H 10.223526 7.657701 -12.069472 0
M  V30 56 H 8.067504 0.155998 -12.291871 0
M  V30 57 H 9.208065 1.218008 -13.092041 0
M  V30 58 H 8.674128 -0.244670 -13.900462 0
M  V30 59 H 7.074525 6.539136 -10.954841 0
M  V30 60 H 6.002066 4.862651 -15.466780 0
M  V30 END ATOM
M  V30 BEGIN BOND
M  V30 1 1 4 3
M  V30 2 1 7 2
M  V30 3 1 7 5
M  V30 4 1 8 5
M  V30 5 1 10 9
M  V30 6 2 13 3
M  V30 7 1 13 12
M  V30 8 1 14 9
M  V30 9 2 14 12
M  V30 10 1 15 10
M  V30 11 1 16 2
M  V30 12 1 17 6
M  V30 13 1 17 10
M  V30 14 1 18 5
M  V30 15 2 19 4
M  V30 16 1 19 14
M  V30 17 2 20 1
M  V30 18 1 21 16
M  V30 19 1 23 1
M  V30 20 2 23 8
M  V30 21 2 24 9
M  V30 22 1 25 21
M  V30 23 1 26 3
M  V30 24 1 26 11
M  V30 25 1 27 5
M  V30 26 1 28 11
M  V30 27 1 28 21
M  V30 28 1 28 22
M  V30 29 1 29 8
M  V30 30 1 29 20
M  V30 31 1 30 2
M  V30 32 1 30 23
M  V30 33 1 30 25
M  V30 34 2 31 11
M  V30 35 1 2 32 CFG=3
M  V30 36 1 33 4
M  V30 37 1 34 6
M  V30 38 1 35 6
M  V30 39 1 36 6
M  V30 40 1 37 7
M  V30 41 1 38 7
M  V30 42 1 39 12
M  V30 43 1 40 13
M  V30 44 1 41 15
M  V30 45 1 42 16
M  V30 46 1 43 16
M  V30 47 1 44 17
M  V30 48 1 45 17
M  V30 49 1 46 18
M  V30 50 1 47 18
M  V30 51 1 48 18
M  V30 52 1 49 19
M  V30 53 1 50 20
M  V30 54 1 21 51 CFG=3
M  V30 55 1 52 22
M  V30 56 1 53 29
M  V30 57 1 54 26
M  V30 58 1 55 26
M  V30 59 1 56 27
M  V30 60 1 57 27
M  V30 61 1 58 27
M  V30 62 1 28 59 CFG=1
M  V30 63 1 30 60 CFG=3
M  V30 END BOND
M  V30 END CTAB
M  END
>  <i_epik_Tot_Q>  (1) 
0

>  <i_epik_Tot_abs_Q>  (1) 
0

>  <i_i_glide_confnum>  (1) 
212

>  <i_i_glide_lignum>  (1) 
62

>  <i_i_glide_posenum>  (1) 
239

>  <i_i_glide_rotatable_bonds>  (1) 
9

>  <i_lp_mmshare_version>  (1) 
72125

>  <i_m_source_file_index>  (1) 
35

>  <i_f3d_flags>  (1) 
0

>  <num_sample>  (1) 
100

>  <b_lp_Chiralities_Consistent>  (1) 
1

>  <r_epik_Charging_Adjusted_Penalty>  (1) 
1.8315475384043096

>  <r_epik_Ionization_Penalty>  (1) 
0.90357436971334326

>  <r_epik_Ionization_Penalty_Charging>  (1) 
0.88195505593321366

>  <r_epik_Ionization_Penalty_Neutral>  (1) 
0.021619313780129622

>  <r_epik_State_Penalty>  (1) 
0.94959248247109596

>  <r_glide_ring_energy>  (1) 
0

>  <r_i_docking_score>  (1) 
-4.3204124505806663

>  <r_i_glide_ecoul>  (1) 
-5.1131409103894425

>  <r_i_glide_eff_state_penalty>  (1) 
0.94959248247109596

>  <r_i_glide_einternal>  (1) 
21.482242369545183

>  <r_i_glide_emodel>  (1) 
-48.215736284683032

>  <r_i_glide_emodel_strain>  (1) 
3.0249847012329951

>  <r_i_glide_energy>  (1) 
-48.651863430387401

>  <r_i_glide_erotb>  (1) 
0.6096786253841594

>  <r_i_glide_esite>  (1) 
-0.032179186950538952

>  <r_i_glide_evdw>  (1) 
-43.538722519997961

>  <r_i_glide_gscore>  (1) 
-5.2700049330517622

>  <r_i_glide_gscore_strain>  (1) 
0

>  <r_i_glide_hbond>  (1) 
-0.13966907185495195

>  <r_i_glide_ligand_efficiency>  (1) 
-0.13936814356711827

>  <r_i_glide_ligand_efficiency_ln>  (1) 
-0.97438541234634257

>  <r_i_glide_ligand_efficiency_sa>  (1) 
-0.43780838976145137

>  <r_i_glide_lipo>  (1) 
-2.7540586971570766

>  <r_i_glide_metal>  (1) 
-0

>  <r_i_glide_rewards>  (1) 
-0.0098693399150397987

>  <r_lp_Energy>  (1) 
38.656515999999996

>  <r_lp_tautomer_probability>  (1) 
0.49995000249987359

>  <s_epik_Chemistry_Notes>  (1) 
This compound has a N-S or N-O group and may undergo hydrolysis at high or low pH.

>  <s_epik_cmdline>  (1) 
J2VwaWtfcHl0aG9uJywgJy1waHQnLCAnMS4wJywgJy1waCcsICc3LjQnLCAnLXRuJywgJzgnLCAnLW1hJywgJzUwMCcsICctaW1hZScsICc8aW5maWxlLm1hZT4nLCAnLW9tYWUnLCAnPG91dGZpbGUubWFlPic=

>  <s_epik_input>  (1) 
TjE9W0NIXU49QyhDKFtDSDJdMikoW0NIM10pW0NIM10pW0NASF0xW0NAQEhdKFtDQEBIXTIzKVNbQ0BASF0oW0NIMl0zKVtDQEhdKFtPSF0pQyg9TylbQ0gyXWM0W2NIXVtjSF1jKFtjSF1bY0hdNClDKD1PKU4oW09IXSlbQ0gyXVtDSDNd

>  <s_glide_docking_method>  (1) 
confgen

>  <s_i_glide_gridfile>  (1) 
gpcr_drd2_6luq_protein_autoprepared_prepared

>  <s_lp_Force_Field>  (1) 
S-OPLS

>  <s_lp_Variant>  (1) 
DiffSBDD_34_num_sample_100-3

>  <s_m_source_file>  (1) 
generated__ligand_DiffSBDD_2026-05-06_prepared.sdf

>  <GenAI_Model>  (1) 
DiffSBDD

>  <Protein>  (1) 
generic_title2

$$$$
DiffSBDD_66_num_sample_100
     RDKit          3D

  0  0  0  0  0  0  0  0  0  0999 V3000
M  V30 BEGIN CTAB
M  V30 COUNTS 88 91 0 0 1
M  V30 BEGIN ATOM
M  V30 1 C 5.816965 3.617458 -18.939967 0
M  V30 2 F 5.569345 4.857720 -12.815976 0
M  V30 3 C 7.252814 2.675774 -17.024762 0 CFG=1
M  V30 4 N 6.936302 0.748337 -19.317206 0
M  V30 5 C 6.370295 -1.439499 -20.280960 0
M  V30 6 F 7.381671 0.494954 -16.079565 0
M  V30 7 O 10.560987 6.911426 -11.704570 0
M  V30 8 N 8.078142 -1.878872 -18.620684 0
M  V30 9 O 7.199558 3.369303 -12.394030 0
M  V30 10 C 6.274038 0.441475 -18.119654 0
M  V30 11 O 6.644608 -3.504249 -19.138842 0
M  V30 12 C 8.598906 2.807676 -16.261959 0
M  V30 13 C 7.457034 -3.940890 -18.005071 0
M  V30 14 C 9.367966 4.109175 -16.450263 0
M  V30 15 O 5.434874 -1.830723 -22.506428 0
M  V30 16 C 6.815241 -0.026495 -20.488201 0
M  V30 17 O 5.425071 -0.446183 -18.014143 0
M  V30 18 C 5.218429 -1.970905 -21.116591 0
M  V30 19 C 10.602004 4.026011 -17.358110 0
M  V30 20 C 9.775929 6.717587 -10.775509 0
M  V30 21 C 8.394262 -2.758764 -17.573723 0
M  V30 22 O 11.554487 2.124791 -19.627740 0
M  V30 23 C 8.477235 5.748200 -13.452139 0
M  V30 24 C 12.114512 7.921726 -8.755986 0
M  V30 25 C 6.632331 4.599059 -12.018019 0 CFG=1
M  V30 26 O 7.101612 0.435312 -21.594210 0
M  V30 27 C 7.207517 3.125635 -18.488613 0 CFG=1
M  V30 28 N 9.834827 7.398976 -9.621286 0
M  V30 29 C 6.843504 6.424154 -15.401611 0 CFG=2
M  V30 30 C 9.257944 1.685898 -19.272011 0
M  V30 31 C 10.407064 4.125434 -18.897987 0 CFG=1
M  V30 32 O 7.034837 7.794408 -15.033800 0
M  V30 33 C 11.536034 4.982421 -19.510068 0
M  V30 34 C 9.024252 5.259416 -15.819550 0
M  V30 35 C 7.693936 5.720910 -12.113388 0 CFG=1
M  V30 36 C 7.741906 2.008874 -19.406863 0 CFG=1
M  V30 37 C 6.630853 1.270226 -16.866264 0 CFG=2
M  V30 38 C 7.028081 -2.224542 -19.380830 0
M  V30 39 C 10.815539 8.447241 -9.370851 0
M  V30 40 C 5.795316 7.209480 -14.645719 0
M  V30 41 C 7.849651 5.418947 -14.839208 0 CFG=1
M  V30 42 C 10.294649 2.770371 -19.673886 0 CFG=1
M  V30 43 C 8.668545 5.642679 -10.890405 0
M  V30 44 H 5.036567 2.871509 -18.792433 0
M  V30 45 H 5.526622 4.517397 -18.395672 0
M  V30 46 H 5.818421 3.878881 -19.998337 0
M  V30 47 H 6.634845 3.382028 -16.485594 0
M  V30 48 H 8.384164 -0.919025 -18.565845 0
M  V30 49 H 8.007317 3.254570 -11.917362 0
M  V30 50 H 8.378837 2.696536 -15.200741 0
M  V30 51 H 9.271945 1.975197 -16.439110 0
M  V30 52 H 6.818257 -4.254578 -17.179016 0
M  V30 53 H 8.049822 -4.803836 -18.309648 0
M  V30 54 H 5.046960 -1.003677 -22.764484 0
M  V30 55 H 4.315606 -1.457616 -20.792010 0
M  V30 56 H 5.052769 -3.028116 -20.913999 0
M  V30 57 H 11.245741 4.848598 -17.042423 0
M  V30 58 H 11.174758 3.134740 -17.101527 0
M  V30 59 H 8.070032 -2.230619 -16.691668 0
M  V30 60 H 9.434959 -3.023505 -17.491659 0
M  V30 61 H 11.782566 1.972457 -18.723623 0
M  V30 62 H 9.319792 5.064538 -13.330515 0
M  V30 63 H 8.906444 6.737395 -13.491666 0
M  V30 64 H 12.738336 8.750051 -8.419082 0
M  V30 65 H 11.922398 7.275972 -7.898814 0
M  V30 66 H 12.689938 7.369237 -9.495610 0
M  V30 67 H 6.270592 4.512725 -10.993305 0
M  V30 68 H 7.793336 4.021368 -18.583097 0
M  V30 69 H 9.151354 7.206125 -8.900958 0
M  V30 70 H 6.615446 6.270011 -16.455187 0
M  V30 71 H 9.447981 0.856015 -19.954234 0
M  V30 72 H 9.494559 1.248836 -18.310739 0
M  V30 73 H 9.544004 4.744616 -19.109730 0
M  V30 74 H 12.522413 4.559212 -19.316123 0
M  V30 75 H 11.421155 5.073402 -20.591131 0
M  V30 76 H 11.528553 5.994120 -19.102199 0
M  V30 77 H 9.623366 6.142206 -15.983235 0
M  V30 78 H 7.164477 6.668169 -12.011142 0
M  V30 79 H 7.633353 2.429745 -20.407423 0
M  V30 80 H 5.705347 1.369319 -16.304652 0
M  V30 81 H 11.048388 8.970119 -10.293612 0
M  V30 82 H 10.356891 9.165828 -8.696577 0
M  V30 83 H 4.954372 7.620404 -15.195312 0
M  V30 84 H 5.674889 7.134861 -13.571072 0
M  V30 85 H 7.309134 4.485692 -14.743006 0
M  V30 86 H 10.111722 3.007722 -20.723197 0
M  V30 87 H 8.077703 5.664291 -9.973292 0
M  V30 88 H 9.172891 4.675555 -10.888838 0
M  V30 END ATOM
M  V30 BEGIN BOND
M  V30 1 1 10 4
M  V30 2 1 12 3
M  V30 3 1 13 11
M  V30 4 1 14 12
M  V30 5 1 16 4
M  V30 6 1 16 5
M  V30 7 2 17 10
M  V30 8 1 18 5
M  V30 9 1 18 15
M  V30 10 1 19 14
M  V30 11 2 20 7
M  V30 12 1 21 8
M  V30 13 1 21 13
M  V30 14 1 25 2
M  V30 15 1 25 9
M  V30 16 2 26 16
M  V30 17 1 27 1
M  V30 18 1 27 3
M  V30 19 1 28 20
M  V30 20 1 31 19
M  V30 21 1 32 29
M  V30 22 1 33 31
M  V30 23 2 34 14
M  V30 24 1 35 23
M  V30 25 1 35 25
M  V30 26 1 36 4
M  V30 27 1 36 27
M  V30 28 1 36 30
M  V30 29 1 37 3
M  V30 30 1 37 6
M  V30 31 1 37 10
M  V30 32 2 38 5
M  V30 33 1 38 8
M  V30 34 1 38 11
M  V30 35 1 39 24
M  V30 36 1 39 28
M  V30 37 1 40 29
M  V30 38 1 40 32
M  V30 39 1 41 23
M  V30 40 1 41 29
M  V30 41 1 41 34
M  V30 42 1 42 22
M  V30 43 1 42 30
M  V30 44 1 42 31
M  V30 45 1 43 20
M  V30 46 1 43 35
M  V30 47 1 44 1
M  V30 48 1 45 1
M  V30 49 1 46 1
M  V30 50 1 3 47 CFG=1
M  V30 51 1 48 8
M  V30 52 1 49 9
M  V30 53 1 50 12
M  V30 54 1 51 12
M  V30 55 1 52 13
M  V30 56 1 53 13
M  V30 57 1 54 15
M  V30 58 1 55 18
M  V30 59 1 56 18
M  V30 60 1 57 19
M  V30 61 1 58 19
M  V30 62 1 59 21
M  V30 63 1 60 21
M  V30 64 1 61 22
M  V30 65 1 62 23
M  V30 66 1 63 23
M  V30 67 1 64 24
M  V30 68 1 65 24
M  V30 69 1 66 24
M  V30 70 1 25 67 CFG=1
M  V30 71 1 27 68 CFG=1
M  V30 72 1 69 28
M  V30 73 1 29 70 CFG=3
M  V30 74 1 71 30
M  V30 75 1 72 30
M  V30 76 1 31 73 CFG=1
M  V30 77 1 74 33
M  V30 78 1 75 33
M  V30 79 1 76 33
M  V30 80 1 77 34
M  V30 81 1 35 78 CFG=1
M  V30 82 1 36 79 CFG=3
M  V30 83 1 37 80 CFG=1
M  V30 84 1 81 39
M  V30 85 1 82 39
M  V30 86 1 83 40
M  V30 87 1 84 40
M  V30 88 1 41 85 CFG=1
M  V30 89 1 42 86 CFG=3
M  V30 90 1 87 43
M  V30 91 1 88 43
M  V30 END BOND
M  V30 END CTAB
M  END
>  <i_epik_Tot_Q>  (1) 
0

>  <i_epik_Tot_abs_Q>  (1) 
0

>  <i_i_glide_confnum>  (1) 
1113

>  <i_i_glide_lignum>  (1) 
132

>  <i_i_glide_posenum>  (1) 
128

>  <i_i_glide_rotatable_bonds>  (1) 
15

>  <i_lp_mmshare_version>  (1) 
72125

>  <i_m_source_file_index>  (1) 
67

>  <i_f3d_flags>  (1) 
0

>  <num_sample>  (1) 
100

>  <b_lp_Chiralities_Consistent>  (1) 
1

>  <r_epik_Charging_Adjusted_Penalty>  (1) 
0.011224841026204068

>  <r_epik_Ionization_Penalty>  (1) 
0.011270599783865109

>  <r_epik_Ionization_Penalty_Charging>  (1) 
8.5422756824624084e-11

>  <r_epik_Ionization_Penalty_Neutral>  (1) 
0.011270599698442352

>  <r_epik_State_Penalty>  (1) 
0.01122484094078131

>  <r_glide_ring_energy>  (1) 
0

>  <r_i_docking_score>  (1) 
-4.3187851126580181

>  <r_i_glide_ecoul>  (1) 
-6.8216482964887248

>  <r_i_glide_eff_state_penalty>  (1) 
0.01122484094078131

>  <r_i_glide_einternal>  (1) 
11.142086504293399

>  <r_i_glide_emodel>  (1) 
-33.622755772421087

>  <r_i_glide_emodel_strain>  (1) 
2.0063444187035486

>  <r_i_glide_energy>  (1) 
-33.924760542791638

>  <r_i_glide_erotb>  (1) 
0.43215163049877869

>  <r_i_glide_esite>  (1) 
-0.1732010402484786

>  <r_i_glide_evdw>  (1) 
-27.103112246302913

>  <r_i_glide_gscore>  (1) 
-4.3300099535987995

>  <r_i_glide_gscore_strain>  (1) 
0

>  <r_i_glide_hbond>  (1) 
-0.21676414396746663

>  <r_i_glide_ligand_efficiency>  (1) 
-0.10043686308507019

>  <r_i_glide_ligand_efficiency_ln>  (1) 
-0.90707909932680963

>  <r_i_glide_ligand_efficiency_sa>  (1) 
-0.35187031132356195

>  <r_i_glide_lipo>  (1) 
-1.3807950703844611

>  <r_i_glide_metal>  (1) 
-0

>  <r_i_glide_rewards>  (1) 
-0.61299847270871677

>  <r_lp_Energy>  (1) 
44.110861999999997

>  <r_lp_tautomer_probability>  (1) 
0.49997499999946832

>  <s_epik_Chemistry_Notes>  (1) 
This compound has an imine and may undergo hydrolysis.

>  <s_epik_cmdline>  (1) 
J2VwaWtfcHl0aG9uJywgJy1waHQnLCAnMS4wJywgJy1waCcsICc3LjQnLCAnLXRuJywgJzgnLCAnLW1hJywgJzUwMCcsICctaW1hZScsICc8aW5maWxlLm1hZT4nLCAnLW9tYWUnLCAnPG91dGZpbGUubWFlPic=

>  <s_epik_input>  (1) 
TzFbQ0gyXVtDSDJdTj1DMVtDQEhdKFtDSDJdW09IXSlDKD1PKU4oQyg9TylbQ0BIXTJGKVtDQEBIXShbQ0BASF0zW0NIM10pW0NIMl1bQ0BIXShbT0hdKVtDQEhdKFtDSDNdKVtDSDJdQyhcW0NIMl1bQ0BIXTIzKT1bQ0hdXFtDQEhdKFtDQEBIXTRPW0NIMl00KVtDSDJdW0NAQEhdKFtDQEBIXShGKVtPSF0pW0NIMl1DKD1PKVtOSF1bQ0gyXVtDSDNd

>  <s_glide_docking_method>  (1) 
confgen

>  <s_i_glide_gridfile>  (1) 
gpcr_drd2_6luq_protein_autoprepared_prepared

>  <s_lp_Force_Field>  (1) 
S-OPLS

>  <s_lp_Variant>  (1) 
DiffSBDD_66_num_sample_100-4

>  <s_m_source_file>  (1) 
generated__ligand_DiffSBDD_2026-05-06_prepared.sdf

>  <GenAI_Model>  (1) 
DiffSBDD

>  <Protein>  (1) 
generic_title2

$$$$
DiffSBDD_47_num_sample_100
     RDKit          3D

  0  0  0  0  0  0  0  0  0  0999 V3000
M  V30 BEGIN CTAB
M  V30 COUNTS 60 66 0 0 1
M  V30 BEGIN ATOM
M  V30 1 C 11.152169 7.588580 -8.339557 0 CFG=1
M  V30 2 N 7.854223 4.969299 -9.562831 0
M  V30 3 N 9.834950 -0.043349 -18.371347 0
M  V30 4 C 6.466110 7.069406 -15.269514 0
M  V30 5 C 6.958353 2.057834 -15.769667 0
M  V30 6 C 9.834842 6.532065 -10.187656 0
M  V30 7 C 10.824540 7.369301 -9.772814 0
M  V30 8 C 10.039506 -1.030696 -17.494063 0
M  V30 9 N 9.034818 -1.312774 -16.691665 0
M  V30 10 N 7.194797 3.173516 -13.566552 0
M  V30 11 N 7.617164 5.463656 -11.859710 0
M  V30 12 N 6.271055 1.060497 -16.613222 0
M  V30 13 N 8.923518 5.467025 -12.097974 0
M  V30 14 C 8.510115 0.316555 -18.003658 0
M  V30 15 C 8.038924 -0.444611 -16.992138 0
M  V30 16 C 9.281602 5.890960 -7.908964 0
M  V30 17 C 6.754689 1.951174 -14.244556 0
M  V30 18 N 7.769395 1.323485 -18.576990 0
M  V30 19 C 7.078903 4.963601 -10.709295 0
M  V30 20 C 6.267615 4.312504 -13.666733 0
M  V30 21 O 5.942081 4.493580 -10.691703 0
M  V30 22 O 5.842905 6.674170 -12.908043 0
M  V30 23 F 11.586050 7.989193 -10.691584 0
M  V30 24 C 6.719429 -0.353308 -16.334103 0 CFG=2
M  V30 25 C 5.733084 -1.405529 -16.866127 0
M  V30 26 C 6.393510 1.494524 -18.067154 0
M  V30 27 C 9.688631 6.322163 -11.584393 0
M  V30 28 C 6.804061 5.615047 -13.045916 0 CFG=1
M  V30 29 C 6.910582 6.908463 -13.832337 0 CFG=1
M  V30 30 C 10.375202 6.730816 -7.361270 0 CFG=2
M  V30 31 C 9.000452 5.779157 -9.223475 0
M  V30 32 C 11.515420 8.969304 -7.844565 0
M  V30 33 C 10.260963 8.249815 -7.370659 0 CFG=1
M  V30 34 H 7.425279 4.520233 -8.767168 0
M  V30 35 H 7.170315 6.569322 -15.934426 0
M  V30 36 H 5.477721 6.635881 -15.421590 0
M  V30 37 H 6.417541 8.127301 -15.528479 0
M  V30 38 H 6.634845 3.046086 -16.088831 0
M  V30 39 H 8.030137 2.048897 -15.968395 0
M  V30 40 H 10.972430 -1.569013 -17.450974 0
M  V30 41 H 7.352827 2.976358 -12.583206 0
M  V30 42 H 9.009318 -2.031966 -15.977871 0
M  V30 43 H 8.667765 5.369926 -7.189003 0
M  V30 44 H 7.338848 1.110089 -13.870776 0
M  V30 45 H 5.717666 1.732354 -13.989805 0
M  V30 46 H 8.108504 1.858132 -19.362311 0
M  V30 47 H 5.330323 4.060795 -13.169336 0
M  V30 48 H 6.004369 4.507806 -14.703402 0
M  V30 49 H 6.823514 -0.516338 -15.261783 0
M  V30 50 H 6.096343 -2.417824 -16.691664 0
M  V30 51 H 4.765056 -1.315287 -16.371583 0
M  V30 52 H 5.572006 -1.305753 -17.939271 0
M  V30 53 H 5.724975 0.894943 -18.685169 0
M  V30 54 H 6.081698 2.531917 -18.193396 0
M  V30 55 H 10.338510 6.931667 -12.211007 0
M  V30 56 H 7.649837 7.632340 -13.494916 0
M  V30 57 H 10.946957 6.255047 -6.567241 0
M  V30 58 H 11.434981 9.769302 -8.574621 0
M  V30 59 H 12.349316 9.043438 -7.149862 0
M  V30 60 H 9.317631 8.652068 -7.739861 0
M  V30 END ATOM
M  V30 BEGIN BOND
M  V30 1 1 7 1
M  V30 2 2 7 6
M  V30 3 2 8 3
M  V30 4 1 9 8
M  V30 5 1 12 5
M  V30 6 1 13 11
M  V30 7 1 14 3
M  V30 8 1 15 9
M  V30 9 2 15 14
M  V30 10 1 17 5
M  V30 11 1 17 10
M  V30 12 1 18 14
M  V30 13 1 19 2
M  V30 14 1 19 11
M  V30 15 1 20 10
M  V30 16 2 21 19
M  V30 17 1 23 7
M  V30 18 1 24 12
M  V30 19 1 24 15
M  V30 20 1 25 24
M  V30 21 1 26 12
M  V30 22 1 26 18
M  V30 23 1 27 6
M  V30 24 2 27 13
M  V30 25 1 28 11
M  V30 26 1 28 20 CFG=3
M  V30 27 1 28 22
M  V30 28 1 29 4
M  V30 29 1 29 22
M  V30 30 1 29 28
M  V30 31 1 30 1
M  V30 32 1 30 16
M  V30 33 1 31 2
M  V30 34 1 31 6
M  V30 35 2 31 16
M  V30 36 1 1 32 CFG=1
M  V30 37 1 33 1
M  V30 38 1 33 30
M  V30 39 1 33 32
M  V30 40 1 34 2
M  V30 41 1 35 4
M  V30 42 1 36 4
M  V30 43 1 37 4
M  V30 44 1 38 5
M  V30 45 1 39 5
M  V30 46 1 40 8
M  V30 47 1 41 10
M  V30 48 1 42 9
M  V30 49 1 43 16
M  V30 50 1 44 17
M  V30 51 1 45 17
M  V30 52 1 46 18
M  V30 53 1 47 20
M  V30 54 1 48 20
M  V30 55 1 24 49 CFG=1
M  V30 56 1 50 25
M  V30 57 1 51 25
M  V30 58 1 52 25
M  V30 59 1 53 26
M  V30 60 1 54 26
M  V30 61 1 55 27
M  V30 62 1 29 56 CFG=1
M  V30 63 1 30 57 CFG=1
M  V30 64 1 58 32
M  V30 65 1 59 32
M  V30 66 1 33 60 CFG=3
M  V30 END BOND
M  V30 END CTAB
M  END
>  <i_epik_Tot_Q>  (1) 
0

>  <i_epik_Tot_abs_Q>  (1) 
0

>  <i_i_glide_confnum>  (1) 
21

>  <i_i_glide_lignum>  (1) 
88

>  <i_i_glide_posenum>  (1) 
280

>  <i_i_glide_rotatable_bonds>  (1) 
6

>  <i_lp_mmshare_version>  (1) 
72125

>  <i_m_source_file_index>  (1) 
48

>  <i_f3d_flags>  (1) 
2

>  <num_sample>  (1) 
100

>  <b_lp_Chiralities_Consistent>  (1) 
0

>  <r_epik_Charging_Adjusted_Penalty>  (1) 
0.98731157914139778

>  <r_epik_Ionization_Penalty>  (1) 
1.0089239767468481

>  <r_epik_Ionization_Penalty_Charging>  (1) 
0.0054720513801765243

>  <r_epik_Ionization_Penalty_Neutral>  (1) 
1.0034519253666716

>  <r_epik_State_Penalty>  (1) 
0.9818395277612213

>  <r_glide_ring_energy>  (1) 
0

>  <r_i_docking_score>  (1) 
-4.3183484642015069

>  <r_i_glide_ecoul>  (1) 
-2.6554747534626375

>  <r_i_glide_eff_state_penalty>  (1) 
0.9818395277612213

>  <r_i_glide_einternal>  (1) 
4.3614124366775489

>  <r_i_glide_emodel>  (1) 
-52.052668715105476

>  <r_i_glide_emodel_strain>  (1) 
0.0033673400521365693

>  <r_i_glide_energy>  (1) 
-42.693895247240761

>  <r_i_glide_erotb>  (1) 
0.58326009776632259

>  <r_i_glide_esite>  (1) 
-0.22010687560759165

>  <r_i_glide_evdw>  (1) 
-40.038420493778126

>  <r_i_glide_gscore>  (1) 
-5.3001879919627282

>  <r_i_glide_gscore_strain>  (1) 
0

>  <r_i_glide_hbond>  (1) 
-0.24317934618282333

>  <r_i_glide_ligand_efficiency>  (1) 
-0.13085904436974263

>  <r_i_glide_ligand_efficiency_ln>  (1) 
-0.96037833922670679

>  <r_i_glide_ligand_efficiency_sa>  (1) 
-0.41973487720639657

>  <r_i_glide_lipo>  (1) 
-1.2602922189234653

>  <r_i_glide_metal>  (1) 
-0

>  <r_i_glide_rewards>  (1) 
-1.7596274113068673

>  <r_lp_Energy>  (1) 
73.522155999999995

>  <r_lp_tautomer_probability>  (1) 
0.94542902837213583

>  <s_epik_Chemistry_Notes>  (1) 
This compound has an imine and may undergo hydrolysis. This compound contains an acetal/aminal-like group ( X-CH(R)-Y where X, Y are N, S, or O) that may be acid/base labile, releasing an aldehyde.

>  <s_epik_cmdline>  (1) 
J2VwaWtfcHl0aG9uJywgJy1waHQnLCAnMS4wJywgJy1waCcsICc3LjQnLCAnLXRuJywgJzgnLCAnLW1hJywgJzUwMCcsICctaW1hZScsICc8aW5maWxlLm1hZT4nLCAnLW9tYWUnLCAnPG91dGZpbGUubWFlPic=

>  <s_epik_input>  (1) 
W0NIMl0xW0NAQEhdMltDQEhdKEMxMjMpW0NIXT1DNEMoPUMzRilbQ0hdPU5OKEMoPU8pW05IXTQpW0NAXTUoT1tDQEBIXTVbQ0gzXSlbQ0gyXVtOSF1bQ0gyXVtDSDJdTihbQ0gyXVtOSF02KVtDQEBIXShbQ0gzXSlbQ0BIXShDNjcpTj1bQ0hdTj03

>  <s_glide_docking_method>  (1) 
confgen

>  <s_i_glide_gridfile>  (1) 
gpcr_drd2_6luq_protein_autoprepared_prepared

>  <s_lp_Force_Field>  (1) 
S-OPLS

>  <s_lp_Variant>  (1) 
DiffSBDD_47_num_sample_100-2

>  <s_m_source_file>  (1) 
generated__ligand_DiffSBDD_2026-05-06_prepared.sdf

>  <GenAI_Model>  (1) 
DiffSBDD

>  <Protein>  (1) 
generic_title2

$$$$
DiffSBDD_14_num_sample_100
     RDKit          3D

  0  0  0  0  0  0  0  0  0  0999 V3000
M  V30 BEGIN CTAB
M  V30 COUNTS 60 64 0 0 1
M  V30 BEGIN ATOM
M  V30 1 C 8.631896 4.949183 -16.381131 0 CFG=1
M  V30 2 O 12.033028 9.836530 -5.938343 0 CHG=-1
M  V30 3 C 9.833823 0.370878 -18.352911 0
M  V30 4 C 8.687388 6.351869 -11.141399 0 CFG=2
M  V30 5 C 10.929953 7.168709 -9.334236 0 CFG=1
M  V30 6 C 8.760872 5.878122 -9.666709 0
M  V30 7 S 7.034977 5.507321 -17.048986 0
M  V30 8 S 9.607922 6.814360 -7.091176 0
M  V30 9 O 11.436188 7.959727 -4.899589 0
M  V30 10 C 8.754985 4.241885 -13.961759 0 CFG=2
M  V30 11 C 10.982261 7.462061 -10.855465 0
M  V30 12 C 7.849856 4.305068 -12.707083 0 CFG=2
M  V30 13 C 8.359985 2.586722 -17.507840 0 CFG=1
M  V30 14 C 6.550950 3.586546 -13.120941 0
M  V30 15 C 7.597754 5.677856 -12.028256 0
M  V30 16 C 8.859644 5.436814 -14.936458 0
M  V30 17 C 11.507838 8.262154 -8.404203 0
M  V30 18 C 6.885052 4.414210 -18.489470 0
M  V30 19 C 7.007600 2.925050 -18.123725 0
M  V30 20 C 6.735549 3.068912 -14.555615 0
M  V30 21 C 9.502753 6.979159 -8.879534 0 CFG=1
M  V30 22 C 8.748936 3.427560 -16.271363 0 CFG=2
M  V30 23 C 11.435971 8.738278 -5.878030 0
M  V30 24 C 10.634614 8.315642 -7.115516 0 CFG=2
M  V30 25 C 8.234841 3.082470 -14.835534 0 CFG=1
M  V30 26 C 10.108643 6.512748 -11.724049 0
M  V30 27 S 8.511067 0.802786 -17.189799 0
M  V30 28 H 9.405947 5.338569 -17.043367 0
M  V30 29 H 10.070992 -0.688950 -18.276856 0
M  V30 30 H 10.739343 0.934904 -18.129841 0
M  V30 31 H 9.528848 0.584714 -19.377421 0
M  V30 32 H 8.310098 7.373965 -11.091389 0
M  V30 33 H 11.434472 6.240869 -9.091770 0
M  V30 34 H 7.757525 5.763377 -9.255977 0
M  V30 35 H 9.264000 4.915369 -9.572199 0
M  V30 36 H 9.764856 4.071473 -13.588714 0
M  V30 37 H 10.617793 8.477317 -11.011149 0
M  V30 38 H 12.014743 7.449138 -11.203269 0
M  V30 39 H 8.318272 3.664304 -11.958337 0
M  V30 40 H 9.093763 2.821445 -18.280670 0
M  V30 41 H 6.358597 2.754852 -12.442003 0
M  V30 42 H 5.687146 4.250593 -13.072623 0
M  V30 43 H 6.718677 5.570122 -11.388731 0
M  V30 44 H 7.278760 6.394767 -12.779041 0
M  V30 45 H 9.894931 5.769225 -14.877284 0
M  V30 46 H 8.224211 6.285034 -14.687738 0
M  V30 47 H 12.554817 8.050344 -8.185511 0
M  V30 48 H 11.482899 9.238460 -8.891262 0
M  V30 49 H 5.924724 4.604969 -18.970222 0
M  V30 50 H 7.658387 4.686984 -19.208159 0
M  V30 51 H 6.234784 2.582929 -17.446800 0
M  V30 52 H 6.870359 2.335986 -19.030990 0
M  V30 53 H 6.295665 2.082110 -14.707910 0
M  V30 54 H 6.235294 3.761012 -15.214813 0
M  V30 55 H 9.034797 7.942100 -9.057713 0
M  V30 56 H 9.830533 3.282212 -16.291767 0
M  V30 57 H 9.903095 9.111781 -7.246891 0
M  V30 58 H 8.632364 2.129397 -14.483622 0
M  V30 59 H 10.581325 5.541140 -11.874263 0
M  V30 60 H 10.031974 6.947342 -12.714403 0
M  V30 END ATOM
M  V30 BEGIN BOND
M  V30 1 1 6 4
M  V30 2 1 7 1
M  V30 3 1 11 5
M  V30 4 1 12 10
M  V30 5 1 14 12
M  V30 6 1 15 4
M  V30 7 1 15 12
M  V30 8 1 16 1
M  V30 9 1 16 10
M  V30 10 1 17 5
M  V30 11 1 18 7
M  V30 12 1 19 13
M  V30 13 1 19 18
M  V30 14 1 20 14
M  V30 15 1 21 5
M  V30 16 1 21 6
M  V30 17 1 21 8
M  V30 18 1 22 1
M  V30 19 1 22 13
M  V30 20 1 23 2
M  V30 21 2 23 9
M  V30 22 1 24 8
M  V30 23 1 24 17
M  V30 24 1 24 23
M  V30 25 1 25 10
M  V30 26 1 25 20
M  V30 27 1 25 22
M  V30 28 1 26 4
M  V30 29 1 26 11
M  V30 30 1 27 3
M  V30 31 1 27 13
M  V30 32 1 1 28 CFG=3
M  V30 33 1 29 3
M  V30 34 1 30 3
M  V30 35 1 31 3
M  V30 36 1 4 32 CFG=1
M  V30 37 1 5 33 CFG=3
M  V30 38 1 34 6
M  V30 39 1 35 6
M  V30 40 1 10 36 CFG=1
M  V30 41 1 37 11
M  V30 42 1 38 11
M  V30 43 1 12 39 CFG=1
M  V30 44 1 13 40 CFG=3
M  V30 45 1 41 14
M  V30 46 1 42 14
M  V30 47 1 43 15
M  V30 48 1 44 15
M  V30 49 1 45 16
M  V30 50 1 46 16
M  V30 51 1 47 17
M  V30 52 1 48 17
M  V30 53 1 49 18
M  V30 54 1 50 18
M  V30 55 1 51 19
M  V30 56 1 52 19
M  V30 57 1 53 20
M  V30 58 1 54 20
M  V30 59 1 21 55 CFG=1
M  V30 60 1 22 56 CFG=1
M  V30 61 1 24 57 CFG=3
M  V30 62 1 25 58 CFG=1
M  V30 63 1 59 26
M  V30 64 1 60 26
M  V30 END BOND
M  V30 END CTAB
M  END
>  <i_epik_Tot_Q>  (1) 
-1

>  <i_epik_Tot_abs_Q>  (1) 
1

>  <i_i_glide_confnum>  (1) 
3

>  <i_i_glide_lignum>  (1) 
23

>  <i_i_glide_posenum>  (1) 
256

>  <i_i_glide_rotatable_bonds>  (1) 
4

>  <i_lp_mmshare_version>  (1) 
72125

>  <i_m_source_file_index>  (1) 
15

>  <i_f3d_flags>  (1) 
0

>  <num_sample>  (1) 
100

>  <b_lp_Chiralities_Consistent>  (1) 
1

>  <r_epik_Charging_Adjusted_Penalty>  (1) 
0.00032590960807401398

>  <r_epik_Ionization_Penalty>  (1) 
0.00032590960807401398

>  <r_epik_Ionization_Penalty_Charging>  (1) 
0.00032590960807401398

>  <r_epik_Ionization_Penalty_Neutral>  (1) 
0

>  <r_epik_State_Penalty>  (1) 
-0

>  <r_glide_ring_energy>  (1) 
0

>  <r_i_docking_score>  (1) 
-4.3181135398517405

>  <r_i_glide_ecoul>  (1) 
-0.61567746189083805

>  <r_i_glide_eff_state_penalty>  (1) 
-0

>  <r_i_glide_einternal>  (1) 
7.878068222343094

>  <r_i_glide_emodel>  (1) 
-24.243432903751401

>  <r_i_glide_emodel_strain>  (1) 
3.0562953829229684

>  <r_i_glide_energy>  (1) 
-25.563680949818369

>  <r_i_glide_erotb>  (1) 
0.21895561960484411

>  <r_i_glide_esite>  (1) 
0

>  <r_i_glide_evdw>  (1) 
-24.948003487927533

>  <r_i_glide_gscore>  (1) 
-4.3181135398517405

>  <r_i_glide_gscore_strain>  (1) 
0

>  <r_i_glide_hbond>  (1) 
0

>  <r_i_glide_ligand_efficiency>  (1) 
-0.15993013110562002

>  <r_i_glide_ligand_efficiency_ln>  (1) 
-1.005185642412006

>  <r_i_glide_ligand_efficiency_sa>  (1) 
-0.47979039331686013

>  <r_i_glide_lipo>  (1) 
-1.5349372185462302

>  <r_i_glide_metal>  (1) 
-0

>  <r_i_glide_rewards>  (1) 
-1.6623801472303521

>  <r_lp_Energy>  (1) 
33.503946999999997

>  <r_lp_tautomer_probability>  (1) 
1

>  <s_epik_cmdline>  (1) 
J2VwaWtfcHl0aG9uJywgJy1waHQnLCAnMS4wJywgJy1waCcsICc3LjQnLCAnLXRuJywgJzgnLCAnLW1hJywgJzUwMCcsICctaW1hZScsICc8aW5maWxlLm1hZT4nLCAnLW9tYWUnLCAnPG91dGZpbGUubWFlPic=

>  <s_epik_input>  (1) 
UzFbQ0gyXVtDSDJdW0NASF0oU1tDSDNdKVtDQEBIXShbQ0BASF0xMilbQ0BIXTNbQ0BASF0oW0NIMl0yKVtDQEhdKFtDSDJdW0NIMl0zKVtDSDJdW0NASF0oW0NIMl1bQ0gyXTQpW0NIMl1bQ0BIXShbQ0BASF00NSlTW0NASF0oW0NIMl01KUMoPU8pW09IXQ==

>  <s_glide_docking_method>  (1) 
confgen

>  <s_i_glide_gridfile>  (1) 
gpcr_drd2_6luq_protein_autoprepared_prepared

>  <s_lp_Force_Field>  (1) 
S-OPLS

>  <s_lp_Variant>  (1) 
DiffSBDD_14_num_sample_100-1

>  <s_m_source_file>  (1) 
generated__ligand_DiffSBDD_2026-05-06_prepared.sdf

>  <GenAI_Model>  (1) 
DiffSBDD

>  <Protein>  (1) 
generic_title2

$$$$
DiffSBDD_23_num_sample_100
     RDKit          3D

  0  0  0  0  0  0  0  0  0  0999 V3000
M  V30 BEGIN CTAB
M  V30 COUNTS 71 73 0 0 1
M  V30 BEGIN ATOM
M  V30 1 C 8.989191 6.075692 -9.621384 0 CFG=1
M  V30 2 C 8.613581 5.377500 -13.355942 0
M  V30 3 O 6.335046 2.569238 -18.414551 0
M  V30 4 C 7.622780 2.835522 -15.970098 0
M  V30 5 N 7.543052 1.592247 -16.741345 0
M  V30 6 O 10.905357 -0.630694 -17.491664 0
M  V30 7 C 8.503807 5.279909 -15.819649 0
M  V30 8 C 6.839199 1.556292 -17.921021 0
M  V30 9 C 4.436682 0.326762 -19.416207 0
M  V30 10 C 5.385717 6.169276 -10.927925 0
M  V30 11 N 6.718565 0.313344 -18.512211 0
M  V30 12 C 9.791469 -0.287512 -17.938807 0
M  V30 13 C 8.153678 0.431252 -16.112355 0 CFG=1
M  V30 14 O 9.594908 0.325883 -19.010400 0 CHG=-1
M  V30 15 C 5.660100 5.124107 -13.392583 0
M  V30 16 C 9.731124 6.577780 -7.225849 0 CFG=1
M  V30 17 O 10.614288 6.169305 -6.204773 0
M  V30 18 C 9.594364 7.429759 -10.099248 0
M  V30 19 O 7.358696 -0.064701 -15.049008 0
M  V30 20 O 9.834834 5.369292 -13.410038 0
M  V30 21 N 11.034806 9.594748 -5.891623 0
M  V30 22 N 7.843976 5.298746 -14.492886 0
M  V30 23 C 5.928914 0.148983 -19.732785 0
M  V30 24 S 6.275373 4.894774 -11.786828 0 CHG=1
M  V30 25 C 10.612913 8.873953 -6.696744 0
M  V30 26 C 8.837839 5.067374 -10.782369 0
M  V30 27 C 8.550502 -0.661061 -17.091559 0 CFG=1
M  V30 28 C 7.290240 -0.897040 -17.914193 0 CFG=1
M  V30 29 C 10.132358 7.962580 -7.689125 0
M  V30 30 C 8.651937 3.870798 -16.461734 0
M  V30 31 C 5.659805 -2.614037 -17.651845 0
M  V30 32 C 10.071555 8.337583 -8.976711 0
M  V30 33 C 9.750322 5.553989 -8.386595 0
M  V30 34 C 7.926877 5.541528 -11.975185 0 CFG=1
M  V30 35 C 6.427664 5.278705 -14.478225 0
M  V30 36 C 5.053772 7.346051 -11.491735 0
M  V30 37 O 6.327355 -1.492756 -17.091696 0
M  V30 38 H 7.978165 6.169302 -9.244473 0
M  V30 39 H 7.806829 2.607998 -14.918261 0
M  V30 40 H 6.634843 3.269970 -15.994408 0
M  V30 41 H 7.903075 5.888649 -16.494969 0
M  V30 42 H 9.477992 5.769282 -15.814230 0
M  V30 43 H 3.837005 0.132300 -20.291685 0
M  V30 44 H 4.096901 -0.346804 -18.629215 0
M  V30 45 H 4.220882 1.343341 -19.095033 0
M  V30 46 H 5.116440 5.954294 -9.904900 0
M  V30 47 H 9.034837 0.830586 -15.632790 0
M  V30 48 H 4.595914 5.109769 -13.491670 0
M  V30 49 H 8.722425 6.644199 -6.813713 0
M  V30 50 H 10.333854 5.322775 -5.881031 0
M  V30 51 H 8.878370 7.997126 -10.691743 0
M  V30 52 H 10.451010 7.241018 -10.747442 0
M  V30 53 H 7.014786 -0.907602 -15.321469 0
M  V30 54 H 6.248188 0.874856 -20.482899 0
M  V30 55 H 6.090066 -0.830204 -20.182204 0
M  V30 56 H 9.834788 4.773783 -11.102026 0
M  V30 57 H 8.419638 4.154250 -10.368056 0
M  V30 58 H 8.794992 -1.584143 -16.564528 0
M  V30 59 H 7.553112 -1.572065 -18.732755 0
M  V30 60 H 8.578180 3.979601 -17.544467 0
M  V30 61 H 9.657227 3.487398 -16.291648 0
M  V30 62 H 4.871220 -2.942612 -16.976228 0
M  V30 63 H 5.201211 -2.390316 -18.613625 0
M  V30 64 H 6.353049 -3.445207 -17.783950 0
M  V30 65 H 10.381101 9.332902 -9.258512 0
M  V30 66 H 10.778610 5.369256 -8.663061 0
M  V30 67 H 9.333576 4.602179 -8.055353 0
M  V30 68 H 7.796738 6.619056 -11.922357 0
M  V30 69 H 5.997812 5.382822 -15.464550 0
M  V30 70 H 4.511838 8.094779 -10.934380 0
M  V30 71 H 5.319593 7.574089 -12.512274 0
M  V30 END ATOM
M  V30 BEGIN BOND
M  V30 1 1 5 4
M  V30 2 2 8 3
M  V30 3 1 8 5
M  V30 4 1 11 8
M  V30 5 2 12 6
M  V30 6 1 13 5
M  V30 7 1 14 12
M  V30 8 1 17 16
M  V30 9 1 18 1
M  V30 10 1 19 13
M  V30 11 2 20 2
M  V30 12 1 22 2
M  V30 13 1 22 7
M  V30 14 1 23 9
M  V30 15 1 23 11
M  V30 16 1 24 10 CFG=1
M  V30 17 1 24 15
M  V30 18 3 25 21
M  V30 19 1 26 1
M  V30 20 1 27 12
M  V30 21 1 27 13
M  V30 22 1 28 11
M  V30 23 1 28 27
M  V30 24 1 29 16
M  V30 25 1 29 25
M  V30 26 1 30 4
M  V30 27 1 30 7
M  V30 28 1 32 18
M  V30 29 2 32 29
M  V30 30 1 33 1
M  V30 31 1 33 16
M  V30 32 1 34 2
M  V30 33 1 34 24
M  V30 34 1 34 26
M  V30 35 2 35 15
M  V30 36 1 35 22
M  V30 37 2 36 10
M  V30 38 1 37 28
M  V30 39 1 37 31
M  V30 40 1 1 38 CFG=1
M  V30 41 1 39 4
M  V30 42 1 40 4
M  V30 43 1 41 7
M  V30 44 1 42 7
M  V30 45 1 43 9
M  V30 46 1 44 9
M  V30 47 1 45 9
M  V30 48 1 46 10
M  V30 49 1 13 47 CFG=1
M  V30 50 1 48 15
M  V30 51 1 16 49 CFG=1
M  V30 52 1 50 17
M  V30 53 1 51 18
M  V30 54 1 52 18
M  V30 55 1 53 19
M  V30 56 1 54 23
M  V30 57 1 55 23
M  V30 58 1 56 26
M  V30 59 1 57 26
M  V30 60 1 27 58 CFG=1
M  V30 61 1 28 59 CFG=3
M  V30 62 1 60 30
M  V30 63 1 61 30
M  V30 64 1 62 31
M  V30 65 1 63 31
M  V30 66 1 64 31
M  V30 67 1 65 32
M  V30 68 1 66 33
M  V30 69 1 67 33
M  V30 70 1 34 68 CFG=1
M  V30 71 1 69 35
M  V30 72 1 70 36
M  V30 73 1 71 36
M  V30 END BOND
M  V30 END CTAB
M  END
>  <i_epik_Tot_Q>  (1) 
0

>  <i_epik_Tot_abs_Q>  (1) 
2

>  <i_i_glide_confnum>  (1) 
385

>  <i_i_glide_lignum>  (1) 
37

>  <i_i_glide_posenum>  (1) 
122

>  <i_i_glide_rotatable_bonds>  (1) 
12

>  <i_lp_mmshare_version>  (1) 
72125

>  <i_m_source_file_index>  (1) 
24

>  <i_f3d_flags>  (1) 
0

>  <num_sample>  (1) 
100

>  <b_lp_Chiralities_Consistent>  (1) 
1

>  <r_epik_Charging_Adjusted_Penalty>  (1) 
5.7553869782388246e-05

>  <r_epik_Ionization_Penalty>  (1) 
0.00064862511437644094

>  <r_epik_Ionization_Penalty_Charging>  (1) 
5.7553869782388246e-05

>  <r_epik_Ionization_Penalty_Neutral>  (1) 
0.00059107124459405267

>  <r_epik_State_Penalty>  (1) 
-0

>  <r_glide_ring_energy>  (1) 
0.11565553091839288

>  <r_i_docking_score>  (1) 
-4.3180253111642131

>  <r_i_glide_ecoul>  (1) 
-3.8739649089228174

>  <r_i_glide_eff_state_penalty>  (1) 
-0

>  <r_i_glide_einternal>  (1) 
12.529308604817999

>  <r_i_glide_emodel>  (1) 
-41.112072681761511

>  <r_i_glide_emodel_strain>  (1) 
1.7578417110460265

>  <r_i_glide_energy>  (1) 
-38.430094981755879

>  <r_i_glide_erotb>  (1) 
0.50545294074296965

>  <r_i_glide_esite>  (1) 
-0.020931074758557097

>  <r_i_glide_evdw>  (1) 
-34.556130072833064

>  <r_i_glide_gscore>  (1) 
-4.3180253111642131

>  <r_i_glide_gscore_strain>  (1) 
0

>  <r_i_glide_hbond>  (1) 
-0.13538784351373265

>  <r_i_glide_ligand_efficiency>  (1) 
-0.11670338678822198

>  <r_i_glide_ligand_efficiency_ln>  (1) 
-0.9364784611157726

>  <r_i_glide_ligand_efficiency_sa>  (1) 
-0.38888157561680298

>  <r_i_glide_lipo>  (1) 
-0.80428421688612084

>  <r_i_glide_metal>  (1) 
-0

>  <r_i_glide_rewards>  (1) 
-1.5539738767686964

>  <r_lp_Energy>  (1) 
40.759158999999997

>  <r_lp_tautomer_probability>  (1) 
1

>  <s_epik_Chemistry_Notes>  (1) 
This compound contains an acetal/aminal-like group ( X-CH(R)-Y where X, Y are N, S, or O) that may be acid/base labile, releasing an aldehyde.

>  <s_epik_cmdline>  (1) 
J2VwaWtfcHl0aG9uJywgJy1waHQnLCAnMS4wJywgJy1waCcsICc3LjQnLCAnLXRuJywgJzgnLCAnLW1hJywgJzUwMCcsICctaW1hZScsICc8aW5maWxlLm1hZT4nLCAnLW9tYWUnLCAnPG91dGZpbGUubWFlPic=

>  <s_epik_input>  (1) 
W09IXVtDQEhdKFtDSDJdMSlDKEMjTik9W0NIXVtDSDJdW0NASF0xW0NIMl1bQ0BASF0yW1MrXShbQ0hdPVtDSDJdKVtDSF09W0NIXU4oQzI9TylbQ0gyXVtDSDJdW0NIMl1OM0MoPU8pTihbQ0gyXVtDSDNdKVtDQEhdKE9bQ0gzXSlbQ0BASF0oQyg9TylbT0hdKVtDQEBIXTNbT0hd

>  <s_glide_docking_method>  (1) 
confgen

>  <s_i_glide_gridfile>  (1) 
gpcr_drd2_6luq_protein_autoprepared_prepared

>  <s_lp_Force_Field>  (1) 
S-OPLS

>  <s_lp_Variant>  (1) 
DiffSBDD_23_num_sample_100-1

>  <s_m_source_file>  (1) 
generated__ligand_DiffSBDD_2026-05-06_prepared.sdf

>  <GenAI_Model>  (1) 
DiffSBDD

>  <Protein>  (1) 
generic_title2

$$$$
DiffSBDD_77_num_sample_100
     RDKit          3D

  0  0  0  0  0  0  0  0  0  0999 V3000
M  V30 BEGIN CTAB
M  V30 COUNTS 44 46 0 0 1
M  V30 BEGIN ATOM
M  V30 1 C 6.807652 5.533234 -13.351457 0
M  V30 2 C 9.483613 7.305953 -11.325401 0 CFG=1
M  V30 3 N 9.834554 7.540690 -9.921610 0
M  V30 4 S 7.227384 2.805935 -13.091639 0
M  V30 5 C 8.606588 6.071186 -11.496791 0 CFG=1
M  V30 6 C 8.080504 6.302111 -12.906668 0 CFG=2
M  V30 7 O 6.493577 5.064968 -19.735150 0
M  V30 8 C 11.088329 7.770376 -9.499690 0
M  V30 9 C 7.676524 5.693365 -19.369423 0 CFG=1
M  V30 10 C 5.461648 5.916794 -19.270845 0
M  V30 11 O 7.792737 7.691750 -12.898271 0
M  V30 12 N 8.629758 8.334765 -11.892574 0
M  V30 13 C 6.162237 6.799238 -18.242866 0 CFG=2
M  V30 14 C 7.172974 1.429961 -14.271157 0
M  V30 15 C 7.001560 4.233737 -14.182552 0 CFG=2
M  V30 16 F 5.263044 5.785247 -16.332232 0
M  V30 17 O 7.380081 6.969337 -18.930227 0
M  V30 18 O 11.284073 7.971093 -8.282567 0 CHG=-1
M  V30 19 S 8.233561 4.408856 -15.515240 0
M  V30 20 O 9.387347 4.898321 -11.435876 0
M  V30 21 C 7.297727 4.820669 -17.028792 0 CFG=2
M  V30 22 C 8.308758 4.941452 -18.187586 0
M  V30 23 C 6.433083 6.099357 -16.887577 0
M  V30 24 O 12.025261 7.777038 -10.327742 0
M  V30 25 F 7.033270 6.969763 -16.085934 0
M  V30 26 H 6.174824 5.336975 -12.485747 0
M  V30 27 H 6.211359 6.214661 -13.954263 0
M  V30 28 H 10.357085 7.221522 -11.975092 0
M  V30 29 H 9.083103 7.544011 -9.244197 0
M  V30 30 H 7.798598 6.056946 -10.763427 0
M  V30 31 H 8.896410 6.165842 -13.614660 0
M  V30 32 H 8.355358 5.746282 -20.221813 0
M  V30 33 H 5.087147 6.513766 -20.103568 0
M  V30 34 H 4.634558 5.366270 -18.843617 0
M  V30 35 H 7.970388 8.576620 -11.158780 0
M  V30 36 H 5.640869 7.747091 -18.099280 0
M  V30 37 H 7.255854 0.480654 -13.741221 0
M  V30 38 H 6.237303 1.430563 -14.827871 0
M  V30 39 H 7.999917 1.497896 -14.977189 0
M  V30 40 H 6.053758 4.029206 -14.676742 0
M  V30 41 H 9.814422 4.881798 -10.592707 0
M  V30 42 H 6.635544 3.985783 -17.261142 0
M  V30 43 H 9.194657 5.496618 -17.876105 0
M  V30 44 H 8.637929 3.956907 -18.520713 0
M  V30 END ATOM
M  V30 BEGIN BOND
M  V30 1 1 3 2
M  V30 2 1 5 2
M  V30 3 1 6 1
M  V30 4 1 6 5
M  V30 5 1 8 3
M  V30 6 1 9 7
M  V30 7 1 10 7
M  V30 8 1 11 6
M  V30 9 1 12 2
M  V30 10 1 12 11
M  V30 11 1 13 10
M  V30 12 1 14 4
M  V30 13 1 15 1
M  V30 14 1 15 4
M  V30 15 1 17 9
M  V30 16 1 17 13
M  V30 17 1 18 8
M  V30 18 1 19 15
M  V30 19 1 20 5
M  V30 20 1 21 19
M  V30 21 1 22 9
M  V30 22 1 22 21
M  V30 23 1 23 13
M  V30 24 1 23 16
M  V30 25 1 23 21
M  V30 26 2 24 8
M  V30 27 1 25 23
M  V30 28 1 26 1
M  V30 29 1 27 1
M  V30 30 1 2 28 CFG=3
M  V30 31 1 29 3
M  V30 32 1 5 30 CFG=1
M  V30 33 1 6 31 CFG=3
M  V30 34 1 9 32 CFG=3
M  V30 35 1 33 10
M  V30 36 1 34 10
M  V30 37 1 35 12
M  V30 38 1 13 36 CFG=1
M  V30 39 1 37 14
M  V30 40 1 38 14
M  V30 41 1 39 14
M  V30 42 1 15 40 CFG=3
M  V30 43 1 41 20
M  V30 44 1 21 42 CFG=3
M  V30 45 1 43 22
M  V30 46 1 44 22
M  V30 END BOND
M  V30 END CTAB
M  END
>  <i_epik_Tot_Q>  (1) 
-1

>  <i_epik_Tot_abs_Q>  (1) 
1

>  <i_i_glide_confnum>  (1) 
163

>  <i_i_glide_lignum>  (1) 
158

>  <i_i_glide_posenum>  (1) 
205

>  <i_i_glide_rotatable_bonds>  (1) 
8

>  <i_lp_mmshare_version>  (1) 
72125

>  <i_m_source_file_index>  (1) 
78

>  <i_f3d_flags>  (1) 
0

>  <num_sample>  (1) 
100

>  <b_lp_Chiralities_Consistent>  (1) 
1

>  <r_epik_Charging_Adjusted_Penalty>  (1) 
0.0018659666509244193

>  <r_epik_Ionization_Penalty>  (1) 
0.0021781486112202567

>  <r_epik_Ionization_Penalty_Charging>  (1) 
0.0018659666509244193

>  <r_epik_Ionization_Penalty_Neutral>  (1) 
0.00031218196029583734

>  <r_epik_State_Penalty>  (1) 
-0

>  <r_glide_ring_energy>  (1) 
0.18076742027696574

>  <r_i_docking_score>  (1) 
-4.312543306333807

>  <r_i_glide_ecoul>  (1) 
-3.4734143558491022

>  <r_i_glide_eff_state_penalty>  (1) 
-0

>  <r_i_glide_einternal>  (1) 
9.2241002932479059

>  <r_i_glide_emodel>  (1) 
-28.445431552778974

>  <r_i_glide_emodel_strain>  (1) 
3.1603899142634972

>  <r_i_glide_energy>  (1) 
-28.842281071826608

>  <r_i_glide_erotb>  (1) 
0.48685992460838567

>  <r_i_glide_esite>  (1) 
-0.28456244762164512

>  <r_i_glide_evdw>  (1) 
-25.368866715977507

>  <r_i_glide_gscore>  (1) 
-4.312543306333807

>  <r_i_glide_gscore_strain>  (1) 
0

>  <r_i_glide_hbond>  (1) 
-0.18473124702975036

>  <r_i_glide_ligand_efficiency>  (1) 
-0.17250173225335227

>  <r_i_glide_ligand_efficiency_ln>  (1) 
-1.0222020000952581

>  <r_i_glide_ligand_efficiency_sa>  (1) 
-0.50439812498124859

>  <r_i_glide_lipo>  (1) 
-1.3350855217182014

>  <r_i_glide_metal>  (1) 
-0

>  <r_i_glide_rewards>  (1) 
-1.2055685253963546

>  <r_lp_Energy>  (1) 
-9.4210519999999995

>  <r_lp_tautomer_probability>  (1) 
1

>  <s_epik_Chemistry_Notes>  (1) 
This compound contains an acetal/aminal-like group ( X-CH(R)-Y where X, Y are N, S, or O) that may be acid/base labile, releasing an aldehyde. This compound has a N-S or N-O group and may undergo hydrolysis at high or low pH.

>  <s_epik_cmdline>  (1) 
J2VwaWtfcHl0aG9uJywgJy1waHQnLCAnMS4wJywgJy1waCcsICc3LjQnLCAnLXRuJywgJzgnLCAnLW1hJywgJzUwMCcsICctaW1hZScsICc8aW5maWxlLm1hZT4nLCAnLW9tYWUnLCAnPG91dGZpbGUubWFlPic=

>  <s_epik_input>  (1) 
W09IXUMoPU8pW05IXVtDQEhdMVtDQEhdKFtPSF0pW0NASF0oT1tOSF0xKVtDSDJdW0NASF0oU1tDSDNdKVNbQ0BIXShbQ0gyXTIpQyhGKShGKVtDQEBIXShPMylbQ0gyXU9bQ0BIXTIz

>  <s_glide_docking_method>  (1) 
confgen

>  <s_i_glide_gridfile>  (1) 
gpcr_drd2_6luq_protein_autoprepared_prepared

>  <s_lp_Force_Field>  (1) 
S-OPLS

>  <s_lp_Variant>  (1) 
DiffSBDD_77_num_sample_100-1

>  <s_m_source_file>  (1) 
generated__ligand_DiffSBDD_2026-05-06_prepared.sdf

>  <GenAI_Model>  (1) 
DiffSBDD

>  <Protein>  (1) 
generic_title2

$$$$
DiffSBDD_45_num_sample_100
     RDKit          3D

  0  0  0  0  0  0  0  0  0  0999 V3000
M  V30 BEGIN CTAB
M  V30 COUNTS 63 65 0 0 1
M  V30 BEGIN ATOM
M  V30 1 C 6.253324 6.202662 -19.453255 0
M  V30 2 C 9.436469 6.818771 -10.256973 0
M  V30 3 C 4.740384 6.440147 -19.549926 0
M  V30 4 C 12.108661 7.535208 -7.542148 0 CFG=2
M  V30 5 C 11.352420 7.387416 -8.876992 0 CFG=1
M  V30 6 C 10.384928 7.773639 -5.768443 0
M  V30 7 C 7.917499 5.387134 -15.225730 0
M  V30 8 C 6.233866 6.413003 -16.906540 0 CFG=1
M  V30 9 O 8.792594 5.729914 -16.018225 0
M  V30 10 N 10.079072 6.638841 -8.943235 0
M  V30 11 Cl 11.093678 9.013124 -9.491618 0
M  V30 12 C 6.465669 5.447548 -12.425013 0 CFG=1
M  V30 13 C 6.305147 3.105392 -13.579714 0
M  V30 14 C 4.164293 6.969816 -18.249549 0
M  V30 15 C 7.479126 6.438051 -11.817147 0
M  V30 16 N 11.429358 8.398400 -6.575869 0
M  V30 17 C 5.464979 6.163711 -13.350205 0
M  V30 18 C 8.297843 5.862564 -10.634791 0
M  V30 19 C 4.822687 6.958634 -17.080761 0
M  V30 20 C 9.155836 6.996826 -7.868796 0
M  V30 21 C 7.187293 4.275085 -13.108698 0 CFG=1
M  V30 22 C 6.442671 5.735430 -15.514499 0 CFG=2
M  V30 23 F 13.222601 8.169527 -7.891873 0
M  V30 24 O 6.032011 6.692665 -14.538782 0
M  V30 25 C 6.623014 5.530260 -18.124641 0
M  V30 26 C 9.656243 6.628300 -6.477874 0
M  V30 27 N 8.208237 4.739845 -14.068091 0
M  V30 28 C 9.595359 4.568651 -13.663907 0
M  V30 29 H 6.779431 7.155387 -19.531223 0
M  V30 30 H 6.589646 5.595749 -20.294808 0
M  V30 31 H 10.191828 6.748719 -11.040506 0
M  V30 32 H 9.034767 7.829110 -10.324348 0
M  V30 33 H 4.235181 5.507219 -19.799624 0
M  V30 34 H 4.528517 7.144625 -20.354380 0
M  V30 35 H 12.388889 6.580133 -7.093261 0
M  V30 36 H 12.043944 6.959741 -9.597649 0
M  V30 37 H 9.665077 8.540007 -5.492117 0
M  V30 38 H 10.813797 7.392984 -4.841069 0
M  V30 39 H 6.851258 7.306710 -16.935989 0
M  V30 40 H 5.881828 5.040678 -11.598162 0
M  V30 41 H 6.132413 2.406007 -12.760597 0
M  V30 42 H 5.322620 3.435309 -13.891707 0
M  V30 43 H 6.768738 2.543732 -14.391504 0
M  V30 44 H 3.163518 7.375225 -18.291664 0
M  V30 45 H 8.149713 6.825106 -12.583100 0
M  V30 46 H 6.936679 7.322909 -11.491613 0
M  V30 47 H 12.108968 8.854723 -5.977103 0
M  V30 48 H 5.034889 7.003914 -12.806410 0
M  V30 49 H 4.634832 5.508923 -13.610286 0
M  V30 50 H 7.610632 5.687225 -9.810020 0
M  V30 51 H 8.748868 4.897830 -10.853008 0
M  V30 52 H 4.345853 7.360953 -16.201619 0
M  V30 53 H 8.883730 8.052377 -7.913068 0
M  V30 54 H 8.234839 6.439438 -7.995877 0
M  V30 55 H 7.742925 3.782237 -12.314185 0
M  V30 56 H 5.834841 4.841649 -15.491638 0
M  V30 57 H 7.688596 5.310670 -18.143593 0
M  V30 58 H 6.119333 4.567650 -18.061807 0
M  V30 59 H 8.794881 6.321630 -5.891118 0
M  V30 60 H 10.298062 5.753969 -6.530625 0
M  V30 61 H 10.235101 4.568860 -14.538332 0
M  V30 62 H 9.919797 5.405543 -13.047651 0
M  V30 63 H 9.766385 3.656167 -13.091578 0
M  V30 END ATOM
M  V30 BEGIN BOND
M  V30 1 1 3 1
M  V30 2 1 5 4
M  V30 3 2 9 7
M  V30 4 1 10 2
M  V30 5 1 10 5
M  V30 6 1 11 5
M  V30 7 1 14 3
M  V30 8 1 15 12
M  V30 9 1 16 4
M  V30 10 1 16 6
M  V30 11 1 17 12
M  V30 12 1 18 2
M  V30 13 1 18 15
M  V30 14 1 19 8
M  V30 15 2 19 14
M  V30 16 1 20 10
M  V30 17 1 21 12
M  V30 18 1 21 13
M  V30 19 1 22 7
M  V30 20 1 22 8
M  V30 21 1 23 4
M  V30 22 1 24 17
M  V30 23 1 24 22
M  V30 24 1 25 1
M  V30 25 1 25 8
M  V30 26 1 26 6
M  V30 27 1 26 20
M  V30 28 1 27 7
M  V30 29 1 27 21
M  V30 30 1 28 27
M  V30 31 1 29 1
M  V30 32 1 30 1
M  V30 33 1 31 2
M  V30 34 1 32 2
M  V30 35 1 33 3
M  V30 36 1 34 3
M  V30 37 1 4 35 CFG=1
M  V30 38 1 5 36 CFG=3
M  V30 39 1 37 6
M  V30 40 1 38 6
M  V30 41 1 8 39 CFG=1
M  V30 42 1 12 40 CFG=1
M  V30 43 1 41 13
M  V30 44 1 42 13
M  V30 45 1 43 13
M  V30 46 1 44 14
M  V30 47 1 45 15
M  V30 48 1 46 15
M  V30 49 1 47 16
M  V30 50 1 48 17
M  V30 51 1 49 17
M  V30 52 1 50 18
M  V30 53 1 51 18
M  V30 54 1 52 19
M  V30 55 1 53 20
M  V30 56 1 54 20
M  V30 57 1 21 55 CFG=1
M  V30 58 1 22 56 CFG=3
M  V30 59 1 57 25
M  V30 60 1 58 25
M  V30 61 1 59 26
M  V30 62 1 60 26
M  V30 63 1 61 28
M  V30 64 1 62 28
M  V30 65 1 63 28
M  V30 END BOND
M  V30 END CTAB
M  END
>  <i_epik_Tot_Q>  (1) 
0

>  <i_epik_Tot_abs_Q>  (1) 
0

>  <i_i_glide_confnum>  (1) 
264

>  <i_i_glide_lignum>  (1) 
83

>  <i_i_glide_posenum>  (1) 
188

>  <i_i_glide_rotatable_bonds>  (1) 
5

>  <i_lp_mmshare_version>  (1) 
72125

>  <i_m_source_file_index>  (1) 
46

>  <i_f3d_flags>  (1) 
0

>  <num_sample>  (1) 
100

>  <b_lp_Chiralities_Consistent>  (1) 
1

>  <r_epik_Charging_Adjusted_Penalty>  (1) 
0.015133208647659156

>  <r_epik_Ionization_Penalty>  (1) 
0.015206278080010002

>  <r_epik_Ionization_Penalty_Charging>  (1) 
0

>  <r_epik_Ionization_Penalty_Neutral>  (1) 
0.015206278080010002

>  <r_epik_State_Penalty>  (1) 
0.015133208647659156

>  <r_glide_ring_energy>  (1) 
0.92753117685040032

>  <r_i_docking_score>  (1) 
-4.3091005680430223

>  <r_i_glide_ecoul>  (1) 
-0.65814797923847723

>  <r_i_glide_eff_state_penalty>  (1) 
0.015133208647659156

>  <r_i_glide_einternal>  (1) 
3.5582618087304692

>  <r_i_glide_emodel>  (1) 
-28.118438664638191

>  <r_i_glide_emodel_strain>  (1) 
0.33939799175628593

>  <r_i_glide_energy>  (1) 
-24.391982508325661

>  <r_i_glide_erotb>  (1) 
0.45657733151366331

>  <r_i_glide_esite>  (1) 
0

>  <r_i_glide_evdw>  (1) 
-23.733834529087183

>  <r_i_glide_gscore>  (1) 
-4.3242337766906811

>  <r_i_glide_gscore_strain>  (1) 
0

>  <r_i_glide_hbond>  (1) 
0

>  <r_i_glide_ligand_efficiency>  (1) 
-0.15389644885867937

>  <r_i_glide_ligand_efficiency_ln>  (1) 
-0.9946669317946748

>  <r_i_glide_ligand_efficiency_sa>  (1) 
-0.46732025941509275

>  <r_i_glide_lipo>  (1) 
-1.9481304206637642

>  <r_i_glide_metal>  (1) 
-0

>  <r_i_glide_rewards>  (1) 
-1.5472667642004492

>  <r_lp_Energy>  (1) 
28.740504999999999

>  <s_epik_cmdline>  (1) 
J2VwaWtfcHl0aG9uJywgJy1waHQnLCAnMS4wJywgJy1waCcsICc3LjQnLCAnLXRuJywgJzgnLCAnLW1hJywgJzUwMCcsICctaW1hZScsICc8aW5maWxlLm1hZT4nLCAnLW9tYWUnLCAnPG91dGZpbGUubWFlPic=

>  <s_epik_input>  (1) 
W0NIMl0xW0NIMl1bQ0gyXVtDSF09W0NIXVtDQEhdMVtDQEBIXShDMj1PKU9bQ0gyXVtDQEBIXShbQ0BASF0oW0NIM10pTjJbQ0gzXSlbQ0gyXVtDSDJdW0NIMl1OKFtDQEBIXShDbClbQ0BASF0zRilbQ0gyXVtDSDJdW0NIMl1bTkhdMw==

>  <s_glide_docking_method>  (1) 
confgen

>  <s_i_glide_gridfile>  (1) 
gpcr_drd2_6luq_protein_autoprepared_prepared

>  <s_lp_Force_Field>  (1) 
S-OPLS

>  <s_lp_Variant>  (1) 
DiffSBDD_45_num_sample_100-2

>  <s_m_source_file>  (1) 
generated__ligand_DiffSBDD_2026-05-06_prepared.sdf

>  <GenAI_Model>  (1) 
DiffSBDD

>  <Protein>  (1) 
generic_title2

$$$$
DiffSBDD_49_num_sample_100
     RDKit          3D

  0  0  0  0  0  0  0  0  0  0999 V3000
M  V30 BEGIN CTAB
M  V30 COUNTS 53 56 0 0 1
M  V30 BEGIN ATOM
M  V30 1 N 8.214268 3.696307 -12.300164 0
M  V30 2 C 7.938831 2.723643 -16.604356 0
M  V30 3 C 7.148457 0.648972 -15.591346 0
M  V30 4 C 8.883292 7.699080 -11.787271 0
M  V30 5 C 10.303570 6.582256 -6.025167 0
M  V30 6 S 6.047915 5.004955 -13.203299 0
M  V30 7 C 7.710109 3.404374 -15.392684 0
M  V30 8 C 10.115292 5.988170 -8.480118 0 CFG=1
M  V30 9 C 6.953817 3.435875 -12.963004 0 CFG=1
M  V30 10 C 7.649655 7.184276 -12.560208 0
M  V30 11 C 9.078642 5.531004 -9.535225 0
M  V30 12 C 8.258277 4.861724 -11.827339 0
M  V30 13 C 11.121297 7.837731 -6.320452 0 CFG=2
M  V30 14 O 11.178189 10.169309 -5.859939 0
M  V30 15 C 9.443324 5.383658 -11.033631 0 CFG=1
M  V30 16 C 10.312279 9.124176 -6.242668 0
M  V30 17 C 7.196564 2.707211 -14.276381 0
M  V30 18 C 10.951473 7.247035 -8.821437 0
M  V30 19 C 7.658142 1.346830 -16.703592 0
M  V30 20 C 7.127499 5.833795 -12.029252 0 CFG=2
M  V30 21 C 9.351054 6.242085 -7.170327 0
M  V30 22 N 9.910008 6.638191 -11.677139 0 CHG=1
M  V30 23 C 11.862575 7.697763 -7.656608 0
M  V30 24 C 6.917658 1.327171 -14.378658 0
M  V30 25 H 10.234838 4.643990 -11.129685 0
M  V30 26 H 8.331019 3.257448 -17.457556 0
M  V30 27 H 6.935320 -0.407790 -15.668003 0
M  V30 28 H 9.312000 8.562878 -12.293877 0
M  V30 29 H 8.634832 8.043584 -10.785791 0
M  V30 30 H 11.004407 5.769287 -5.865105 0
M  V30 31 H 9.760418 6.688276 -5.090360 0
M  V30 32 H 7.928995 4.459398 -15.318084 0
M  V30 33 H 10.793031 5.158729 -8.291668 0
M  V30 34 H 6.340768 2.805838 -12.315950 0
M  V30 35 H 7.908942 7.082719 -13.614959 0
M  V30 36 H 6.851470 7.922818 -12.510269 0
M  V30 37 H 8.698927 4.569273 -9.195555 0
M  V30 38 H 8.220670 6.169303 -9.447113 0
M  V30 39 H 11.834841 7.885129 -5.502684 0
M  V30 40 H 11.835334 10.274254 -6.530386 0
M  V30 41 H 9.550245 9.001760 -5.491668 0
M  V30 42 H 9.792313 9.367897 -7.167358 0
M  V30 43 H 11.588034 7.057754 -9.683300 0
M  V30 44 H 10.286856 8.067764 -9.091855 0
M  V30 45 H 7.835014 0.825519 -17.632835 0
M  V30 46 H 8.756447 5.369366 -6.913532 0
M  V30 47 H 8.634872 7.055044 -7.302698 0
M  V30 48 H 12.373572 8.626043 -7.914502 0
M  V30 49 H 12.645725 6.969304 -7.491661 0
M  V30 50 H 6.528556 0.788606 -13.526610 0
M  V30 51 H 10.693385 6.997510 -11.153334 0
M  V30 52 H 6.591925 5.965297 -11.088823 0
M  V30 53 H 10.222335 6.401028 -12.609059 0
M  V30 END ATOM
M  V30 BEGIN BOND
M  V30 1 1 7 2
M  V30 2 1 9 1
M  V30 3 1 9 6
M  V30 4 1 10 4
M  V30 5 1 11 8
M  V30 6 2 12 1
M  V30 7 1 13 5
M  V30 8 1 15 11
M  V30 9 1 15 12
M  V30 10 1 16 13
M  V30 11 1 16 14
M  V30 12 2 17 7
M  V30 13 1 17 9
M  V30 14 1 18 8
M  V30 15 2 19 2
M  V30 16 1 19 3
M  V30 17 1 20 6
M  V30 18 1 20 10
M  V30 19 1 20 12
M  V30 20 1 21 5
M  V30 21 1 21 8
M  V30 22 1 22 4
M  V30 23 1 22 15
M  V30 24 1 23 13
M  V30 25 1 23 18
M  V30 26 2 24 3
M  V30 27 1 24 17
M  V30 28 1 15 25 CFG=1
M  V30 29 1 26 2
M  V30 30 1 27 3
M  V30 31 1 28 4
M  V30 32 1 29 4
M  V30 33 1 30 5
M  V30 34 1 31 5
M  V30 35 1 32 7
M  V30 36 1 8 33 CFG=1
M  V30 37 1 9 34 CFG=1
M  V30 38 1 35 10
M  V30 39 1 36 10
M  V30 40 1 37 11
M  V30 41 1 38 11
M  V30 42 1 13 39 CFG=1
M  V30 43 1 40 14
M  V30 44 1 41 16
M  V30 45 1 42 16
M  V30 46 1 43 18
M  V30 47 1 44 18
M  V30 48 1 45 19
M  V30 49 1 46 21
M  V30 50 1 47 21
M  V30 51 1 48 23
M  V30 52 1 49 23
M  V30 53 1 50 24
M  V30 54 1 51 22
M  V30 55 1 20 52 CFG=1
M  V30 56 1 53 22
M  V30 END BOND
M  V30 END CTAB
M  END
>  <i_epik_Tot_Q>  (1) 
1

>  <i_epik_Tot_abs_Q>  (1) 
1

>  <i_i_glide_confnum>  (1) 
56

>  <i_i_glide_lignum>  (1) 
94

>  <i_i_glide_posenum>  (1) 
286

>  <i_i_glide_rotatable_bonds>  (1) 
5

>  <i_lp_mmshare_version>  (1) 
72125

>  <i_m_source_file_index>  (1) 
50

>  <i_f3d_flags>  (1) 
0

>  <num_sample>  (1) 
100

>  <b_lp_Chiralities_Consistent>  (1) 
1

>  <r_epik_Charging_Adjusted_Penalty>  (1) 
1.8117775797116225

>  <r_epik_Ionization_Penalty>  (1) 
0.90588925903239437

>  <r_epik_Ionization_Penalty_Charging>  (1) 
0.90588878985581123

>  <r_epik_Ionization_Penalty_Neutral>  (1) 
4.6917658313918283e-07

>  <r_epik_State_Penalty>  (1) 
0.90588878985581134

>  <r_glide_ring_energy>  (1) 
0.012110018449817897

>  <r_i_docking_score>  (1) 
-4.3072329212413125

>  <r_i_glide_ecoul>  (1) 
-3.5116295379446809

>  <r_i_glide_eff_state_penalty>  (1) 
0.90588878985581134

>  <r_i_glide_einternal>  (1) 
3.5375182129307827

>  <r_i_glide_emodel>  (1) 
-40.496242669610993

>  <r_i_glide_emodel_strain>  (1) 
0.59700264152215254

>  <r_i_glide_energy>  (1) 
-32.975270572195178

>  <r_i_glide_erotb>  (1) 
0.63659216225735071

>  <r_i_glide_esite>  (1) 
-0.00323441553762263

>  <r_i_glide_evdw>  (1) 
-29.4636410342505

>  <r_i_glide_gscore>  (1) 
-5.2131217110971235

>  <r_i_glide_gscore_strain>  (1) 
0

>  <r_i_glide_hbond>  (1) 
0

>  <r_i_glide_ligand_efficiency>  (1) 
-0.17946803838505468

>  <r_i_glide_ligand_efficiency_ln>  (1) 
-1.0309184840930135

>  <r_i_glide_ligand_efficiency_sa>  (1) 
-0.51767540248951716

>  <r_i_glide_lipo>  (1) 
-1.8018840151344306

>  <r_i_glide_metal>  (1) 
-0

>  <r_i_glide_rewards>  (1) 
-2.0446689602781944

>  <r_lp_Energy>  (1) 
30.269361

>  <r_lp_tautomer_probability>  (1) 
0.99998600000000004

>  <s_epik_Chemistry_Notes>  (1) 
This compound has an imine and may undergo hydrolysis. This compound contains an acetal/aminal-like group ( X-CH(R)-Y where X, Y are N, S, or O) that may be acid/base labile, releasing an aldehyde.

>  <s_epik_cmdline>  (1) 
J2VwaWtfcHl0aG9uJywgJy1waHQnLCAnMS4wJywgJy1waCcsICc3LjQnLCAnLXRuJywgJzgnLCAnLW1hJywgJzUwMCcsICctaW1hZScsICc8aW5maWxlLm1hZT4nLCAnLW9tYWUnLCAnPG91dGZpbGUubWFlPic=

>  <s_epik_input>  (1) 
W2NIXTFbY0hdW2NIXVtjSF1bY0hdYzFbQ0BASF0oW05IXTIpU1tDQEBIXShbQ0BIXTIzKVtDSDJdW0NIMl1OPUMzW0NIMl1bQ0BIXTRbQ0gyXVtDSDJdW0NASF0oW0NIMl1bQ0gyXTQpW0NIMl1bT0hd

>  <s_glide_docking_method>  (1) 
confgen

>  <s_i_glide_gridfile>  (1) 
gpcr_drd2_6luq_protein_autoprepared_prepared

>  <s_lp_Force_Field>  (1) 
S-OPLS

>  <s_lp_Variant>  (1) 
DiffSBDD_49_num_sample_100-4

>  <s_m_source_file>  (1) 
generated__ligand_DiffSBDD_2026-05-06_prepared.sdf

>  <GenAI_Model>  (1) 
DiffSBDD

>  <Protein>  (1) 
generic_title2

$$$$
DiffSBDD_23_num_sample_100
     RDKit          3D

  0  0  0  0  0  0  0  0  0  0999 V3000
M  V30 BEGIN CTAB
M  V30 COUNTS 71 73 0 0 1
M  V30 BEGIN ATOM
M  V30 1 C 9.102073 5.829991 -9.849202 0 CFG=1
M  V30 2 C 8.194849 3.566602 -12.966965 0
M  V30 3 O 5.067269 -0.230814 -16.849486 0
M  V30 4 C 7.295687 -0.230805 -15.191647 0
M  V30 5 N 7.344545 -0.167894 -16.660520 0
M  V30 6 O 9.291743 2.666039 -17.689419 0
M  V30 7 C 7.562322 2.327081 -14.980664 0
M  V30 8 C 6.176658 -0.186476 -17.389227 0
M  V30 9 C 4.692172 1.360836 -19.851362 0
M  V30 10 C 6.461075 7.172806 -11.892802 0
M  V30 11 N 6.323332 -0.120633 -18.760366 0
M  V30 12 C 8.597428 2.068955 -18.541987 0
M  V30 13 C 8.691095 -0.135294 -17.247063 0 CFG=1
M  V30 14 O 7.802868 2.609995 -19.342121 0 CHG=-1
M  V30 15 C 5.807398 5.211596 -13.412930 0
M  V30 16 C 9.807793 6.585547 -7.513449 0 CFG=1
M  V30 17 O 10.464362 6.169399 -6.335968 0
M  V30 18 C 9.938235 6.973318 -10.487834 0
M  V30 19 O 9.296682 -1.420310 -17.233836 0
M  V30 20 O 9.035112 2.713854 -12.691287 0
M  V30 21 N 11.832290 9.368815 -6.614649 0
M  V30 22 N 7.349895 3.427057 -14.034334 0
M  V30 23 C 5.149076 -0.082917 -19.633470 0
M  V30 24 S 6.450938 5.419963 -11.820908 0 CHG=1
M  V30 25 C 11.262736 8.624297 -7.295406 0
M  V30 26 C 8.921359 4.643443 -10.808321 0
M  V30 27 C 8.742004 0.525946 -18.615572 0 CFG=1
M  V30 28 C 7.631537 -0.162193 -19.409673 0 CFG=1
M  V30 29 C 10.571133 7.723280 -8.158606 0
M  V30 30 C 6.835212 1.061742 -14.506117 0
M  V30 31 C 8.813357 -1.721432 -20.756016 0
M  V30 32 C 10.627290 7.890841 -9.489711 0
M  V30 33 C 9.665201 5.393870 -8.479180 0
M  V30 34 C 8.126496 4.863777 -12.123942 0 CFG=1
M  V30 35 C 6.273177 4.307601 -14.281874 0
M  V30 36 C 5.354244 7.900833 -11.706450 0
M  V30 37 O 7.941728 -1.502492 -19.656850 0
M  V30 38 H 8.103582 6.169259 -9.622401 0
M  V30 39 H 8.273701 -0.513485 -14.799966 0
M  V30 40 H 6.621952 -1.030661 -14.884194 0
M  V30 41 H 7.207670 2.603595 -15.974878 0
M  V30 42 H 8.622759 2.118499 -15.110774 0
M  V30 43 H 3.702394 1.369737 -20.291742 0
M  V30 44 H 4.634836 1.914216 -18.915022 0
M  V30 45 H 5.373329 1.896454 -20.514427 0
M  V30 46 H 7.407066 7.643008 -12.100130 0
M  V30 47 H 9.324120 0.459591 -16.595274 0
M  V30 48 H 4.974689 5.846620 -13.675628 0
M  V30 49 H 8.819699 6.961818 -7.244828 0
M  V30 50 H 9.916986 5.539008 -5.888315 0
M  V30 51 H 9.308754 7.598960 -11.113705 0
M  V30 52 H 10.705627 6.569394 -11.146467 0
M  V30 53 H 8.753667 -2.003507 -16.719396 0
M  V30 54 H 5.373981 -0.554395 -20.591238 0
M  V30 55 H 4.330185 -0.667847 -19.209377 0
M  V30 56 H 9.915794 4.264946 -11.034584 0
M  V30 57 H 8.413210 3.840964 -10.290146 0
M  V30 58 H 9.706029 0.345031 -19.087714 0
M  V30 59 H 7.506931 0.343978 -20.369986 0
M  V30 60 H 6.973855 0.932014 -13.432293 0
M  V30 61 H 5.764987 1.188199 -14.648515 0
M  V30 62 H 8.952336 -2.792044 -20.899016 0
M  V30 63 H 8.401652 -1.314942 -21.681028 0
M  V30 64 H 9.796719 -1.284863 -20.586983 0
M  V30 65 H 11.191809 8.715218 -9.900919 0
M  V30 66 H 10.634012 4.920235 -8.609813 0
M  V30 67 H 9.013890 4.641687 -8.033370 0
M  V30 68 H 8.625982 5.626851 -12.720995 0
M  V30 69 H 5.835634 4.175635 -15.245713 0
M  V30 70 H 5.379505 8.968490 -11.765244 0
M  V30 71 H 4.410259 7.431158 -11.491701 0
M  V30 END ATOM
M  V30 BEGIN BOND
M  V30 1 1 5 4
M  V30 2 2 8 3
M  V30 3 1 8 5
M  V30 4 1 11 8
M  V30 5 2 12 6
M  V30 6 1 13 5
M  V30 7 1 14 12
M  V30 8 1 17 16
M  V30 9 1 18 1
M  V30 10 1 19 13
M  V30 11 2 20 2
M  V30 12 1 22 2
M  V30 13 1 22 7
M  V30 14 1 23 9
M  V30 15 1 23 11
M  V30 16 1 24 10 CFG=3
M  V30 17 1 24 15
M  V30 18 3 25 21
M  V30 19 1 26 1
M  V30 20 1 27 12
M  V30 21 1 27 13
M  V30 22 1 28 11
M  V30 23 1 28 27
M  V30 24 1 29 16
M  V30 25 1 29 25
M  V30 26 1 30 4
M  V30 27 1 30 7
M  V30 28 1 32 18
M  V30 29 2 32 29
M  V30 30 1 33 1
M  V30 31 1 33 16
M  V30 32 1 34 2
M  V30 33 1 34 24
M  V30 34 1 34 26
M  V30 35 2 35 15
M  V30 36 1 35 22
M  V30 37 2 36 10
M  V30 38 1 37 28
M  V30 39 1 37 31
M  V30 40 1 1 38 CFG=1
M  V30 41 1 39 4
M  V30 42 1 40 4
M  V30 43 1 41 7
M  V30 44 1 42 7
M  V30 45 1 43 9
M  V30 46 1 44 9
M  V30 47 1 45 9
M  V30 48 1 46 10
M  V30 49 1 13 47 CFG=1
M  V30 50 1 48 15
M  V30 51 1 16 49 CFG=1
M  V30 52 1 50 17
M  V30 53 1 51 18
M  V30 54 1 52 18
M  V30 55 1 53 19
M  V30 56 1 54 23
M  V30 57 1 55 23
M  V30 58 1 56 26
M  V30 59 1 57 26
M  V30 60 1 27 58 CFG=3
M  V30 61 1 28 59 CFG=3
M  V30 62 1 60 30
M  V30 63 1 61 30
M  V30 64 1 62 31
M  V30 65 1 63 31
M  V30 66 1 64 31
M  V30 67 1 65 32
M  V30 68 1 66 33
M  V30 69 1 67 33
M  V30 70 1 34 68 CFG=3
M  V30 71 1 69 35
M  V30 72 1 70 36
M  V30 73 1 71 36
M  V30 END BOND
M  V30 END CTAB
M  END
>  <i_epik_Tot_Q>  (1) 
0

>  <i_epik_Tot_abs_Q>  (1) 
2

>  <i_i_glide_confnum>  (1) 
493

>  <i_i_glide_lignum>  (1) 
37

>  <i_i_glide_posenum>  (1) 
48

>  <i_i_glide_rotatable_bonds>  (1) 
12

>  <i_lp_mmshare_version>  (1) 
72125

>  <i_m_source_file_index>  (1) 
24

>  <i_f3d_flags>  (1) 
0

>  <num_sample>  (1) 
100

>  <b_lp_Chiralities_Consistent>  (1) 
1

>  <r_epik_Charging_Adjusted_Penalty>  (1) 
5.7553869782388246e-05

>  <r_epik_Ionization_Penalty>  (1) 
0.00064862511437644094

>  <r_epik_Ionization_Penalty_Charging>  (1) 
5.7553869782388246e-05

>  <r_epik_Ionization_Penalty_Neutral>  (1) 
0.00059107124459405267

>  <r_epik_State_Penalty>  (1) 
-0

>  <r_glide_ring_energy>  (1) 
0.11565553091839288

>  <r_i_docking_score>  (1) 
-4.3056409100040005

>  <r_i_glide_ecoul>  (1) 
-3.7271304816839064

>  <r_i_glide_eff_state_penalty>  (1) 
-0

>  <r_i_glide_einternal>  (1) 
5.0058549132358579

>  <r_i_glide_emodel>  (1) 
-44.076851798644284

>  <r_i_glide_emodel_strain>  (1) 
0

>  <r_i_glide_energy>  (1) 
-35.9060067274416

>  <r_i_glide_erotb>  (1) 
0.50545294074296965

>  <r_i_glide_esite>  (1) 
-0.053806055433950187

>  <r_i_glide_evdw>  (1) 
-32.178876245757692

>  <r_i_glide_gscore>  (1) 
-4.3056409100040005

>  <r_i_glide_gscore_strain>  (1) 
0

>  <r_i_glide_hbond>  (1) 
-0.028429958369237431

>  <r_i_glide_ligand_efficiency>  (1) 
-0.11636867324335136

>  <r_i_glide_ligand_efficiency_ln>  (1) 
-0.93379257483567824

>  <r_i_glide_ligand_efficiency_sa>  (1) 
-0.38776623582854325

>  <r_i_glide_lipo>  (1) 
-0.91825268028654949

>  <r_i_glide_metal>  (1) 
-0

>  <r_i_glide_rewards>  (1) 
-1.6425917721167633

>  <r_lp_Energy>  (1) 
40.759158999999997

>  <r_lp_tautomer_probability>  (1) 
1

>  <s_epik_Chemistry_Notes>  (1) 
This compound contains an acetal/aminal-like group ( X-CH(R)-Y where X, Y are N, S, or O) that may be acid/base labile, releasing an aldehyde.

>  <s_epik_cmdline>  (1) 
J2VwaWtfcHl0aG9uJywgJy1waHQnLCAnMS4wJywgJy1waCcsICc3LjQnLCAnLXRuJywgJzgnLCAnLW1hJywgJzUwMCcsICctaW1hZScsICc8aW5maWxlLm1hZT4nLCAnLW9tYWUnLCAnPG91dGZpbGUubWFlPic=

>  <s_epik_input>  (1) 
W09IXVtDQEhdKFtDSDJdMSlDKEMjTik9W0NIXVtDSDJdW0NASF0xW0NIMl1bQ0BASF0yW1MrXShbQ0hdPVtDSDJdKVtDSF09W0NIXU4oQzI9TylbQ0gyXVtDSDJdW0NIMl1OM0MoPU8pTihbQ0gyXVtDSDNdKVtDQEhdKE9bQ0gzXSlbQ0BASF0oQyg9TylbT0hdKVtDQEBIXTNbT0hd

>  <s_glide_docking_method>  (1) 
confgen

>  <s_i_glide_gridfile>  (1) 
gpcr_drd2_6luq_protein_autoprepared_prepared

>  <s_lp_Force_Field>  (1) 
S-OPLS

>  <s_lp_Variant>  (1) 
DiffSBDD_23_num_sample_100-1

>  <s_m_source_file>  (1) 
generated__ligand_DiffSBDD_2026-05-06_prepared.sdf

>  <GenAI_Model>  (1) 
DiffSBDD

>  <Protein>  (1) 
generic_title2

$$$$
DiffSBDD_64_num_sample_100
     RDKit          3D

  0  0  0  0  0  0  0  0  0  0999 V3000
M  V30 BEGIN CTAB
M  V30 COUNTS 76 80 0 0 1
M  V30 BEGIN ATOM
M  V30 1 N 7.913569 2.603685 -17.156000 0
M  V30 2 C 10.276386 2.862694 -17.396091 0 CFG=1
M  V30 3 C 8.299685 6.209942 -13.670730 0
M  V30 4 C 12.100122 8.582585 -8.699427 0
M  V30 5 C 10.481884 2.383665 -18.831275 0
M  V30 6 C 11.457522 3.428033 -19.373961 0
M  V30 7 C 9.524018 6.823579 -8.285513 0 CFG=1
M  V30 8 O 10.234836 5.611234 -8.251261 0
M  V30 9 O 10.681314 5.042574 -16.353134 0
M  V30 10 C 8.841293 6.080015 -11.180239 0
M  V30 11 C 11.339677 7.903188 -9.842656 0
M  V30 12 C 6.984695 1.720306 -16.447999 0
M  V30 13 F 11.450762 3.480339 -20.705686 0
M  V30 14 C 9.814077 7.459731 -6.908349 0 CFG=2
M  V30 15 O 9.434906 5.137861 -10.665775 0
M  V30 16 C 10.160794 4.396193 -17.502823 0 CFG=1
M  V30 17 O 6.773522 4.169210 -10.851019 0
M  V30 18 C 7.364352 4.293141 -12.143039 0 CFG=2
M  V30 19 C 6.969101 1.954807 -14.918411 0
M  V30 20 C 4.971838 4.454062 -12.981460 0
M  V30 21 C 11.031959 4.761057 -18.731221 0
M  V30 22 C 6.713555 3.435634 -14.572533 0 CFG=1
M  V30 23 C 7.776552 5.796168 -12.286183 0 CFG=2
M  V30 24 C 7.717770 4.020992 -16.804907 0 CFG=2
M  V30 25 C 6.307992 3.700154 -13.091991 0 CFG=1
M  V30 26 C 7.528883 5.766619 -14.912587 0
M  V30 27 O 8.980278 8.569299 -6.724502 0
M  V30 28 O 12.234367 7.704953 -7.600546 0
M  V30 29 C 9.844134 7.701207 -9.554976 0 CFG=1
M  V30 30 O 9.223207 2.201687 -16.691691 0
M  V30 31 C 8.693786 4.808086 -17.706255 0
M  V30 32 C 11.272380 7.851552 -6.565858 0
M  V30 33 N 9.037015 7.372773 -10.780377 0
M  V30 34 F 12.687705 3.121662 -18.956824 0
M  V30 35 C 8.424299 8.518622 -11.487289 0
M  V30 36 C 7.781101 4.294547 -15.259548 0 CFG=1
M  V30 37 H 11.196775 2.624712 -16.862512 0
M  V30 38 H 9.348756 5.926902 -13.769975 0
M  V30 39 H 8.234651 7.293459 -13.719757 0
M  V30 40 H 13.106899 8.818906 -9.045049 0
M  V30 41 H 11.644577 9.531418 -8.414804 0
M  V30 42 H 9.543466 2.412855 -19.386238 0
M  V30 43 H 10.873306 1.367730 -18.882482 0
M  V30 44 H 8.467689 6.557190 -8.298412 0
M  V30 45 H 10.050233 5.170247 -9.077622 0
M  V30 46 H 11.441740 4.571223 -16.043814 0
M  V30 47 H 11.822127 6.969280 -10.120019 0
M  V30 48 H 11.432693 8.567673 -10.691939 0
M  V30 49 H 5.985104 1.849422 -16.860298 0
M  V30 50 H 7.255995 0.685707 -16.660773 0
M  V30 51 H 9.484030 6.748044 -6.148452 0
M  V30 52 H 6.133068 4.854495 -10.731580 0
M  V30 53 H 8.239986 3.641767 -12.197825 0
M  V30 54 H 6.196216 1.319856 -14.483994 0
M  V30 55 H 7.911107 1.626158 -14.477398 0
M  V30 56 H 5.033365 5.463681 -13.382757 0
M  V30 57 H 4.173884 3.918933 -13.491786 0
M  V30 58 H 4.634892 4.542707 -11.951438 0
M  V30 59 H 10.465332 5.362994 -19.443658 0
M  V30 60 H 11.908981 5.354071 -18.463371 0
M  V30 61 H 5.834839 3.763346 -15.091688 0
M  V30 62 H 6.869813 6.362529 -12.075870 0
M  V30 63 H 6.714174 4.289397 -17.141101 0
M  V30 64 H 6.090172 2.712274 -12.683005 0
M  V30 65 H 7.854521 6.403367 -15.721023 0
M  V30 66 H 6.470799 6.002780 -14.844818 0
M  V30 67 H 8.088510 8.282152 -6.891230 0
M  V30 68 H 9.497291 8.689113 -9.257432 0
M  V30 69 H 8.580278 5.886811 -17.621107 0
M  V30 70 H 8.409056 4.589817 -18.737283 0
M  V30 71 H 11.604367 7.199706 -5.756874 0
M  V30 72 H 11.328854 8.861079 -6.157339 0
M  V30 73 H 9.074710 8.851820 -12.294404 0
M  V30 74 H 7.428689 8.349827 -11.886707 0
M  V30 75 H 8.289936 9.369437 -10.822983 0
M  V30 76 H 8.761376 4.003322 -14.886848 0
M  V30 END ATOM
M  V30 BEGIN BOND
M  V30 1 1 5 2
M  V30 2 1 6 5
M  V30 3 1 8 7
M  V30 4 1 11 4
M  V30 5 1 12 1
M  V30 6 1 13 6
M  V30 7 1 14 7
M  V30 8 2 15 10
M  V30 9 1 16 2
M  V30 10 1 16 9 CFG=1
M  V30 11 1 18 17
M  V30 12 1 19 12
M  V30 13 1 21 6
M  V30 14 1 21 16
M  V30 15 1 22 19
M  V30 16 1 23 3
M  V30 17 1 23 10
M  V30 18 1 23 18
M  V30 19 1 24 1
M  V30 20 1 25 18
M  V30 21 1 25 20
M  V30 22 1 25 22
M  V30 23 1 26 3
M  V30 24 1 27 14
M  V30 25 1 28 4
M  V30 26 1 29 7
M  V30 27 1 29 11
M  V30 28 1 30 1
M  V30 29 1 30 2
M  V30 30 1 31 16
M  V30 31 1 31 24
M  V30 32 1 32 14
M  V30 33 1 32 28
M  V30 34 1 33 10
M  V30 35 1 33 29
M  V30 36 1 34 6
M  V30 37 1 35 33
M  V30 38 1 36 22
M  V30 39 1 36 24
M  V30 40 1 36 26
M  V30 41 1 2 37 CFG=1
M  V30 42 1 38 3
M  V30 43 1 39 3
M  V30 44 1 40 4
M  V30 45 1 41 4
M  V30 46 1 42 5
M  V30 47 1 43 5
M  V30 48 1 7 44 CFG=1
M  V30 49 1 45 8
M  V30 50 1 46 9
M  V30 51 1 47 11
M  V30 52 1 48 11
M  V30 53 1 49 12
M  V30 54 1 50 12
M  V30 55 1 14 51 CFG=1
M  V30 56 1 52 17
M  V30 57 1 18 53 CFG=1
M  V30 58 1 54 19
M  V30 59 1 55 19
M  V30 60 1 56 20
M  V30 61 1 57 20
M  V30 62 1 58 20
M  V30 63 1 59 21
M  V30 64 1 60 21
M  V30 65 1 22 61 CFG=3
M  V30 66 1 23 62 CFG=1
M  V30 67 1 24 63 CFG=3
M  V30 68 1 25 64 CFG=1
M  V30 69 1 65 26
M  V30 70 1 66 26
M  V30 71 1 67 27
M  V30 72 1 29 68 CFG=1
M  V30 73 1 69 31
M  V30 74 1 70 31
M  V30 75 1 71 32
M  V30 76 1 72 32
M  V30 77 1 73 35
M  V30 78 1 74 35
M  V30 79 1 75 35
M  V30 80 1 36 76 CFG=1
M  V30 END BOND
M  V30 END CTAB
M  END
>  <i_epik_Tot_Q>  (1) 
0

>  <i_epik_Tot_abs_Q>  (1) 
0

>  <i_i_glide_confnum>  (1) 
6

>  <i_i_glide_lignum>  (1) 
127

>  <i_i_glide_posenum>  (1) 
338

>  <i_i_glide_rotatable_bonds>  (1) 
7

>  <i_lp_mmshare_version>  (1) 
72125

>  <i_m_source_file_index>  (1) 
65

>  <i_f3d_flags>  (1) 
0

>  <num_sample>  (1) 
100

>  <b_lp_Chiralities_Consistent>  (1) 
1

>  <r_epik_Charging_Adjusted_Penalty>  (1) 
0.0074276549920260261

>  <r_epik_Ionization_Penalty>  (1) 
0.0074281302473017232

>  <r_epik_Ionization_Penalty_Charging>  (1) 
0

>  <r_epik_Ionization_Penalty_Neutral>  (1) 
0.0074281302473017232

>  <r_epik_State_Penalty>  (1) 
0.0074276549920260261

>  <r_glide_ring_energy>  (1) 
0.2111205224247624

>  <r_i_docking_score>  (1) 
-4.3037125857335585

>  <r_i_glide_ecoul>  (1) 
-4.0171505072972087

>  <r_i_glide_eff_state_penalty>  (1) 
0.0074276549920260261

>  <r_i_glide_einternal>  (1) 
44.276442588950061

>  <r_i_glide_emodel>  (1) 
-6.0684687157997672

>  <r_i_glide_emodel_strain>  (1) 
4.5992611783825765

>  <r_i_glide_energy>  (1) 
-28.792707881962738

>  <r_i_glide_erotb>  (1) 
0.22910757355035372

>  <r_i_glide_esite>  (1) 
-0.15953853853822231

>  <r_i_glide_evdw>  (1) 
-24.775557374665528

>  <r_i_glide_gscore>  (1) 
-4.3111402407255843

>  <r_i_glide_gscore_strain>  (1) 
0.14981529459564413

>  <r_i_glide_hbond>  (1) 
-0.1162264852590765

>  <r_i_glide_ligand_efficiency>  (1) 
-0.11954757182593218

>  <r_i_glide_ligand_efficiency_ln>  (1) 
-0.93895381332998262

>  <r_i_glide_ligand_efficiency_sa>  (1) 
-0.39473738495123312

>  <r_i_glide_lipo>  (1) 
-1.9752061865487889

>  <r_i_glide_metal>  (1) 
-0

>  <r_i_glide_rewards>  (1) 
-0.59774145369763676

>  <r_lp_Energy>  (1) 
55.332492999999999

>  <s_epik_Chemistry_Notes>  (1) 
This compound has a N-S or N-O group and may undergo hydrolysis at high or low pH.

>  <s_epik_cmdline>  (1) 
J2VwaWtfcHl0aG9uJywgJy1waHQnLCAnMS4wJywgJy1waCcsICc3LjQnLCAnLXRuJywgJzgnLCAnLW1hJywgJzUwMCcsICctaW1hZScsICc8aW5maWxlLm1hZT4nLCAnLW9tYWUnLCAnPG91dGZpbGUubWFlPic=

>  <s_epik_input>  (1) 
RkMoRikoW0NIMl0xKVtDSDJdW0NAQEhdKFtDQEBdMTJbT0hdKU9OM1tDQEhdKFtDSDJdMilbQ0BASF00W0NAQEhdKFtDSDJdW0NIMl0zKVtDQEhdKFtDSDNdKVtDQEhdKFtPSF0pW0NASF0oW0NIMl1bQ0gyXTQpQyg9TylOKFtDSDNdKVtDQEBIXTVbQ0gyXVtDSDJdT1tDSDJdW0NAQEhdKFtPSF0pW0NAQEhdNVtPSF0=

>  <s_glide_docking_method>  (1) 
confgen

>  <s_i_glide_gridfile>  (1) 
gpcr_drd2_6luq_protein_autoprepared_prepared

>  <s_lp_Force_Field>  (1) 
S-OPLS

>  <s_lp_Variant>  (1) 
DiffSBDD_64_num_sample_100-1

>  <s_m_source_file>  (1) 
generated__ligand_DiffSBDD_2026-05-06_prepared.sdf

>  <GenAI_Model>  (1) 
DiffSBDD

>  <Protein>  (1) 
generic_title2

$$$$
DiffSBDD_59_num_sample_100
     RDKit          3D

  0  0  0  0  0  0  0  0  0  0999 V3000
M  V30 BEGIN CTAB
M  V30 COUNTS 74 77 0 0 1
M  V30 BEGIN ATOM
M  V30 1 C 5.545779 4.550217 -13.017030 0
M  V30 2 N 6.313281 -1.440874 -17.210398 0 CFG=2 CHG=1
M  V30 3 C 4.934085 -1.878035 -17.610128 0
M  V30 4 C 6.415835 -0.082221 -16.539414 0 CFG=1
M  V30 5 C 8.099719 6.468426 -12.539669 0
M  V30 6 C 6.985886 4.126998 -12.658732 0 CFG=2
M  V30 7 C 12.181435 7.963692 -3.565854 0
M  V30 8 C 11.925296 9.124993 -6.967792 0
M  V30 9 C 8.497420 4.851761 -10.744652 0
M  V30 10 C 11.146849 8.568608 -5.938603 0
M  V30 11 O 6.391693 1.436999 -13.507218 0
M  V30 12 O 12.836684 9.042248 -4.244259 0
M  V30 13 C 10.076495 7.734124 -6.302151 0
M  V30 14 C 9.329455 5.774490 -10.090252 0
M  V30 15 C 4.784070 -3.381771 -17.895851 0
M  V30 16 C 7.875057 5.181534 -11.966097 0
M  V30 17 C 10.661136 8.115830 -8.630812 0
M  V30 18 C 8.951020 7.387896 -11.882255 0
M  V30 19 N 11.696367 8.912830 -8.285131 0
M  V30 20 C 7.285170 -1.546409 -18.343538 0
M  V30 21 N 7.943875 1.375897 -15.151672 0
M  V30 22 C 7.435162 6.872441 -13.847531 0
M  V30 23 C 6.289981 1.096675 -17.534798 0
M  V30 24 O 5.309071 -0.060642 -15.658680 0
M  V30 25 N 10.414284 7.988228 -10.020298 0
M  V30 26 C 7.299350 1.978088 -14.138958 0
M  V30 27 C 9.558587 7.050920 -10.650798 0
M  V30 28 C 5.330493 -3.842372 -19.227295 0
M  V30 29 C 9.823287 7.504064 -7.664973 0
M  V30 30 C 7.755074 3.403457 -13.793935 0
M  V30 31 C 8.234808 -3.869032 -17.706011 0
M  V30 32 C 11.434850 8.880548 -4.499061 0 CFG=2
M  V30 33 C 7.664567 -2.967363 -18.809535 0 CFG=1
M  V30 34 C 7.645186 0.011727 -15.588934 0
M  V30 35 C 6.597108 -3.664047 -19.627968 0
M  V30 36 H 5.100036 5.137303 -12.213843 0
M  V30 37 H 5.480173 5.114674 -13.943718 0
M  V30 38 H 4.913643 3.674734 -13.160759 0
M  V30 39 H 4.234718 -1.723548 -16.797965 0
M  V30 40 H 4.567539 -1.283112 -18.447911 0
M  V30 41 H 6.833130 3.375896 -11.884626 0
M  V30 42 H 12.084592 8.107044 -2.491666 0
M  V30 43 H 12.450393 6.968920 -3.908250 0
M  V30 44 H 12.755839 9.769341 -6.726471 0
M  V30 45 H 8.340532 3.880632 -10.310937 0
M  V30 46 H 9.444712 7.292091 -5.546875 0
M  V30 47 H 9.809035 5.489801 -9.168534 0
M  V30 48 H 5.209143 -3.981177 -17.091655 0
M  V30 49 H 3.722649 -3.629687 -17.903035 0
M  V30 50 H 9.126624 8.360638 -12.316530 0
M  V30 51 H 6.899547 -0.989849 -19.199347 0
M  V30 52 H 8.218158 -1.051299 -18.080060 0
M  V30 53 H 8.677153 1.875616 -15.632888 0
M  V30 54 H 7.834821 7.815861 -14.212514 0
M  V30 55 H 7.575360 6.140744 -14.638555 0
M  V30 56 H 6.374039 7.057066 -13.688180 0
M  V30 57 H 7.148979 1.159524 -18.202583 0
M  V30 58 H 5.396423 1.009608 -18.152528 0
M  V30 59 H 6.234852 2.055601 -17.022159 0
M  V30 60 H 5.575301 0.354521 -14.843114 0
M  V30 61 H 10.853945 8.671590 -10.614663 0
M  V30 62 H 4.636356 -4.353652 -19.879335 0
M  V30 63 H 8.978244 6.903257 -7.956455 0
M  V30 64 H 8.798411 3.315813 -13.490039 0
M  V30 65 H 7.756212 3.994894 -14.706954 0
M  V30 66 H 8.720195 -4.747969 -18.131533 0
M  V30 67 H 8.975823 -3.335884 -17.110770 0
M  V30 68 H 7.462669 -4.230375 -17.030063 0
M  V30 69 H 10.832729 9.701906 -4.114851 0
M  V30 70 H 8.474226 -2.814730 -19.524350 0
M  V30 71 H 7.527071 -0.630717 -14.715446 0
M  V30 72 H 8.548838 -0.342641 -16.081168 0
M  V30 73 H 6.901043 -4.033343 -20.597158 0
M  V30 74 H 6.615249 -2.103512 -16.506860 0
M  V30 END ATOM
M  V30 BEGIN BOND
M  V30 1 1 3 2
M  V30 2 1 4 2
M  V30 3 1 6 1
M  V30 4 2 10 8
M  V30 5 1 12 7
M  V30 6 1 13 10
M  V30 7 2 14 9
M  V30 8 1 15 3
M  V30 9 2 16 5
M  V30 10 1 16 6
M  V30 11 1 16 9
M  V30 12 1 18 5
M  V30 13 1 19 8
M  V30 14 2 19 17
M  V30 15 1 20 2
M  V30 16 1 22 5
M  V30 17 1 23 4
M  V30 18 1 4 24 CFG=1
M  V30 19 1 25 17
M  V30 20 2 26 11
M  V30 21 1 26 21
M  V30 22 1 27 14
M  V30 23 2 27 18
M  V30 24 1 27 25
M  V30 25 1 28 15
M  V30 26 2 29 13
M  V30 27 1 29 17
M  V30 28 1 30 6
M  V30 29 1 30 26
M  V30 30 1 32 7
M  V30 31 1 32 10
M  V30 32 1 32 12
M  V30 33 1 33 20
M  V30 34 1 33 31
M  V30 35 1 34 4
M  V30 36 1 34 21
M  V30 37 2 35 28
M  V30 38 1 35 33
M  V30 39 1 36 1
M  V30 40 1 37 1
M  V30 41 1 38 1
M  V30 42 1 39 3
M  V30 43 1 40 3
M  V30 44 1 6 41 CFG=1
M  V30 45 1 42 7
M  V30 46 1 43 7
M  V30 47 1 44 8
M  V30 48 1 45 9
M  V30 49 1 46 13
M  V30 50 1 47 14
M  V30 51 1 48 15
M  V30 52 1 49 15
M  V30 53 1 50 18
M  V30 54 1 51 20
M  V30 55 1 52 20
M  V30 56 1 53 21
M  V30 57 1 54 22
M  V30 58 1 55 22
M  V30 59 1 56 22
M  V30 60 1 57 23
M  V30 61 1 58 23
M  V30 62 1 59 23
M  V30 63 1 60 24
M  V30 64 1 61 25
M  V30 65 1 62 28
M  V30 66 1 63 29
M  V30 67 1 64 30
M  V30 68 1 65 30
M  V30 69 1 66 31
M  V30 70 1 67 31
M  V30 71 1 68 31
M  V30 72 1 32 69 CFG=1
M  V30 73 1 33 70 CFG=3
M  V30 74 1 71 34
M  V30 75 1 72 34
M  V30 76 1 73 35
M  V30 77 1 2 74 CFG=1
M  V30 END BOND
M  V30 END CTAB
M  END
>  <i_epik_Tot_Q>  (1) 
1

>  <i_epik_Tot_abs_Q>  (1) 
1

>  <i_i_glide_confnum>  (1) 
788

>  <i_i_glide_lignum>  (1) 
118

>  <i_i_glide_posenum>  (1) 
159

>  <i_i_glide_rotatable_bonds>  (1) 
11

>  <i_lp_mmshare_version>  (1) 
72125

>  <i_m_source_file_index>  (1) 
60

>  <i_f3d_flags>  (1) 
0

>  <num_sample>  (1) 
100

>  <b_lp_Chiralities_Consistent>  (1) 
1

>  <r_epik_Charging_Adjusted_Penalty>  (1) 
1.3886415501160498

>  <r_epik_Ionization_Penalty>  (1) 
0.71269190361940904

>  <r_epik_Ionization_Penalty_Charging>  (1) 
0.69432077505802503

>  <r_epik_Ionization_Penalty_Neutral>  (1) 
0.018371128561383968

>  <r_epik_State_Penalty>  (1) 
0.69432077505802492

>  <r_glide_ring_energy>  (1) 
0

>  <r_i_docking_score>  (1) 
-4.3025816233144303

>  <r_i_glide_ecoul>  (1) 
-2.5965413512978333

>  <r_i_glide_eff_state_penalty>  (1) 
0.69432077505802492

>  <r_i_glide_einternal>  (1) 
19.485471339327958

>  <r_i_glide_emodel>  (1) 
-52.862152958772974

>  <r_i_glide_emodel_strain>  (1) 
0.20422563856737952

>  <r_i_glide_energy>  (1) 
-51.449722796592006

>  <r_i_glide_erotb>  (1) 
0.88120926584797454

>  <r_i_glide_esite>  (1) 
-0.036791043928709459

>  <r_i_glide_evdw>  (1) 
-48.853181445294176

>  <r_i_glide_gscore>  (1) 
-4.9969023983724554

>  <r_i_glide_gscore_strain>  (1) 
0

>  <r_i_glide_hbond>  (1) 
0

>  <r_i_glide_ligand_efficiency>  (1) 
-0.12293090352326944

>  <r_i_glide_ligand_efficiency_ln>  (1) 
-0.94451215697174662

>  <r_i_glide_ligand_efficiency_sa>  (1) 
-0.40211513699601054

>  <r_i_glide_lipo>  (1) 
-1.8674348180684761

>  <r_i_glide_metal>  (1) 
-0

>  <r_i_glide_rewards>  (1) 
-1.1417455272638608

>  <r_lp_Energy>  (1) 
32.050570999999998

>  <r_lp_tautomer_probability>  (1) 
0.99999977220005165

>  <s_epik_cmdline>  (1) 
J2VwaWtfcHl0aG9uJywgJy1waHQnLCAnMS4wJywgJy1waCcsICc3LjQnLCAnLXRuJywgJzgnLCAnLW1hJywgJzUwMCcsICctaW1hZScsICc8aW5maWxlLm1hZT4nLCAnLW9tYWUnLCAnPG91dGZpbGUubWFlPic=

>  <s_epik_input>  (1) 
W0NIMl0xW0NAQEhdKFtDSDNdKVtDSF09W0NIXVtDSDJdW0NIMl1OMVtDQEBdKFtDSDNdKShbT0hdKVtDSDJdW05IXUMoPU8pW0NIMl1bQ0BIXShbQ0gzXSljKGMyW0NIM10pW2NIXVtjSF1jKFtjSF0yKVtOSF1jKFtjSF1bY0hdMyluW2NIXWMzW0NASF00W0NIMl1PNA==

>  <s_glide_docking_method>  (1) 
confgen

>  <s_i_glide_gridfile>  (1) 
gpcr_drd2_6luq_protein_autoprepared_prepared

>  <s_lp_Force_Field>  (1) 
S-OPLS

>  <s_lp_Variant>  (1) 
DiffSBDD_59_num_sample_100-2

>  <s_m_source_file>  (1) 
generated__ligand_DiffSBDD_2026-05-06_prepared.sdf

>  <GenAI_Model>  (1) 
DiffSBDD

>  <Protein>  (1) 
generic_title2

$$$$
DiffSBDD_76_num_sample_100
     RDKit          3D

  0  0  0  0  0  0  0  0  0  0999 V3000
M  V30 BEGIN CTAB
M  V30 COUNTS 77 80 0 0 1
M  V30 BEGIN ATOM
M  V30 1 C 5.811953 3.561499 -13.204892 0
M  V30 2 C 8.616699 1.739919 -17.171632 0
M  V30 3 C 8.737915 6.017152 -13.273630 0
M  V30 4 N 6.720177 4.619435 -13.715339 0 CFG=1 CHG=1
M  V30 5 C 9.467678 1.609944 -18.307052 0
M  V30 6 C 11.866105 8.402450 -3.890547 0
M  V30 7 C 12.215136 9.295306 -4.824300 0
M  V30 8 C 10.589760 7.645997 -7.668088 0 CFG=1
M  V30 9 C 7.063310 2.040466 -14.879295 0
M  V30 10 N 10.178135 7.136033 -10.054845 0
M  V30 11 C 11.389961 7.423966 -10.850972 0
M  V30 12 C 7.347377 3.188363 -15.645478 0
M  V30 13 C 12.249549 8.988393 -6.306028 0
M  V30 14 C 8.482373 4.168264 -17.607113 0
M  V30 15 C 7.541753 0.801127 -15.319210 0
M  V30 16 C 9.703051 5.275139 -8.325313 0
M  V30 17 C 6.281877 2.142264 -13.578536 0
M  V30 18 C 9.341943 6.258531 -10.867736 0
M  V30 19 N 8.276515 0.649197 -16.431436 0
M  V30 20 O 12.150577 8.406978 -10.175766 0
M  V30 21 O 10.988543 3.705119 -21.005711 0
M  V30 22 C 11.770033 7.546405 -6.700906 0 CFG=1
M  V30 23 C 9.829101 2.773719 -19.085681 0
M  V30 24 C 8.672073 6.941279 -12.060469 0
M  V30 25 N 8.635144 8.968889 -7.493810 0 CHG=1
M  V30 26 C 10.507575 6.535640 -8.743528 0 CFG=2
M  V30 27 O 9.934682 0.363346 -18.632290 0 CHG=-1
M  V30 28 C 8.049236 4.652075 -13.064102 0
M  V30 29 C 8.144523 3.044342 -16.818146 0
M  V30 30 C 6.828565 4.559133 -15.189086 0
M  V30 31 C 9.306921 7.871608 -6.872327 0
M  V30 32 C 11.482210 7.054551 -4.237545 0
M  V30 33 C 11.434031 6.645015 -5.510200 0
M  V30 34 C 10.761231 2.721071 -20.299914 0
M  V30 35 C 9.309583 4.032046 -18.722412 0
M  V30 36 C 11.445098 1.393327 -20.624832 0
M  V30 37 H 5.690450 3.652343 -12.123858 0
M  V30 38 H 4.831681 3.759737 -13.633657 0
M  V30 39 H 8.298887 6.566210 -14.101905 0
M  V30 40 H 9.781012 5.840899 -13.536715 0
M  V30 41 H 11.870842 8.700219 -2.851958 0
M  V30 42 H 12.497658 10.284910 -4.531148 0
M  V30 43 H 10.793709 8.562056 -8.220672 0
M  V30 44 H 11.107802 7.769243 -11.833427 0
M  V30 45 H 12.010365 6.569302 -11.085751 0
M  V30 46 H 13.265024 9.147814 -6.676008 0
M  V30 47 H 11.681084 9.786207 -6.776809 0
M  V30 48 H 8.122128 5.147259 -17.352412 0
M  V30 49 H 7.340512 -0.096800 -14.748554 0
M  V30 50 H 9.979189 4.969474 -7.330341 0
M  V30 51 H 8.624643 5.419005 -8.296695 0
M  V30 52 H 9.909397 4.427841 -8.981689 0
M  V30 53 H 5.437012 1.452623 -13.605742 0
M  V30 54 H 6.944436 1.769231 -12.795706 0
M  V30 55 H 9.951623 5.411048 -11.185437 0
M  V30 56 H 8.505748 5.844262 -10.308100 0
M  V30 57 H 12.411928 9.074016 -10.790386 0
M  V30 58 H 12.593998 7.075471 -7.229007 0
M  V30 59 H 7.633970 7.161501 -11.806728 0
M  V30 60 H 9.113875 7.908300 -12.307974 0
M  V30 61 H 7.846381 9.236373 -6.916734 0
M  V30 62 H 9.261072 9.748595 -7.625931 0
M  V30 63 H 11.506910 6.169023 -8.856696 0
M  V30 64 H 8.694312 3.865974 -13.458822 0
M  V30 65 H 7.933939 4.418360 -12.009414 0
M  V30 66 H 5.842912 4.778261 -15.580494 0
M  V30 67 H 7.450394 5.377044 -15.514897 0
M  V30 68 H 8.652149 7.001370 -6.780151 0
M  V30 69 H 9.486983 8.240615 -5.867515 0
M  V30 70 H 11.227964 6.358482 -3.447831 0
M  V30 71 H 11.147681 5.636905 -5.731776 0
M  V30 72 H 9.567942 4.907766 -19.301098 0
M  V30 73 H 10.723420 0.601058 -20.842697 0
M  V30 74 H 12.072930 1.509039 -21.507724 0
M  V30 75 H 12.089866 1.108095 -19.789143 0
M  V30 76 H 8.281714 8.643653 -8.397076 0
M  V30 77 H 6.280618 5.501046 -13.482494 0
M  V30 END ATOM
M  V30 BEGIN BOND
M  V30 1 1 4 1
M  V30 2 2 5 2
M  V30 3 2 7 6
M  V30 4 1 11 10
M  V30 5 2 12 9
M  V30 6 1 13 7
M  V30 7 1 15 9
M  V30 8 1 17 1
M  V30 9 1 17 9
M  V30 10 1 18 10
M  V30 11 1 19 2
M  V30 12 2 19 15
M  V30 13 1 20 11
M  V30 14 1 22 8
M  V30 15 1 22 13
M  V30 16 1 23 5
M  V30 17 1 24 3
M  V30 18 1 24 18
M  V30 19 1 26 8
M  V30 20 1 26 10
M  V30 21 1 26 16
M  V30 22 1 27 5
M  V30 23 1 28 3
M  V30 24 1 28 4
M  V30 25 1 29 2
M  V30 26 1 29 12
M  V30 27 2 29 14
M  V30 28 1 30 4
M  V30 29 1 30 12
M  V30 30 1 31 8
M  V30 31 1 31 25
M  V30 32 1 32 6
M  V30 33 1 33 22
M  V30 34 2 33 32
M  V30 35 2 34 21
M  V30 36 1 34 23
M  V30 37 1 35 14
M  V30 38 2 35 23
M  V30 39 1 36 34
M  V30 40 1 37 1
M  V30 41 1 38 1
M  V30 42 1 39 3
M  V30 43 1 40 3
M  V30 44 1 41 6
M  V30 45 1 42 7
M  V30 46 1 8 43 CFG=3
M  V30 47 1 44 11
M  V30 48 1 45 11
M  V30 49 1 46 13
M  V30 50 1 47 13
M  V30 51 1 48 14
M  V30 52 1 49 15
M  V30 53 1 50 16
M  V30 54 1 51 16
M  V30 55 1 52 16
M  V30 56 1 53 17
M  V30 57 1 54 17
M  V30 58 1 55 18
M  V30 59 1 56 18
M  V30 60 1 57 20
M  V30 61 1 22 58 CFG=3
M  V30 62 1 59 24
M  V30 63 1 60 24
M  V30 64 1 61 25
M  V30 65 1 62 25
M  V30 66 1 26 63 CFG=3
M  V30 67 1 64 28
M  V30 68 1 65 28
M  V30 69 1 66 30
M  V30 70 1 67 30
M  V30 71 1 68 31
M  V30 72 1 69 31
M  V30 73 1 70 32
M  V30 74 1 71 33
M  V30 75 1 72 35
M  V30 76 1 73 36
M  V30 77 1 74 36
M  V30 78 1 75 36
M  V30 79 1 76 25
M  V30 80 1 4 77 CFG=3
M  V30 END BOND
M  V30 END CTAB
M  END
>  <i_epik_Tot_Q>  (1) 
1

>  <i_epik_Tot_abs_Q>  (1) 
3

>  <i_i_glide_confnum>  (1) 
1175

>  <i_i_glide_lignum>  (1) 
152

>  <i_i_glide_posenum>  (1) 
359

>  <i_i_glide_rotatable_bonds>  (1) 
12

>  <i_lp_mmshare_version>  (1) 
72125

>  <i_m_source_file_index>  (1) 
77

>  <i_f3d_flags>  (1) 
0

>  <num_sample>  (1) 
100

>  <b_lp_Chiralities_Consistent>  (1) 
1

>  <r_epik_Charging_Adjusted_Penalty>  (1) 
0.19513752508682314

>  <r_epik_Ionization_Penalty>  (1) 
0.12765993639139714

>  <r_epik_Ionization_Penalty_Charging>  (1) 
0.058121654325050918

>  <r_epik_Ionization_Penalty_Neutral>  (1) 
0.069538282066346213

>  <r_epik_State_Penalty>  (1) 
0.13701587076177221

>  <r_glide_ring_energy>  (1) 
0.68305203791256597

>  <r_i_docking_score>  (1) 
-4.3008854815117852

>  <r_i_glide_ecoul>  (1) 
-2.4734568478346279

>  <r_i_glide_eff_state_penalty>  (1) 
0.13701587076177221

>  <r_i_glide_einternal>  (1) 
39.774140809123551

>  <r_i_glide_emodel>  (1) 
-10.091451038656921

>  <r_i_glide_emodel_strain>  (1) 
6.253271014993004

>  <r_i_glide_energy>  (1) 
-24.537048453026756

>  <r_i_glide_erotb>  (1) 
0.46812735760266511

>  <r_i_glide_esite>  (1) 
-0.042160789578842624

>  <r_i_glide_evdw>  (1) 
-22.063591605192126

>  <r_i_glide_gscore>  (1) 
-4.4379013522735571

>  <r_i_glide_gscore_strain>  (1) 
0.56331775374825099

>  <r_i_glide_hbond>  (1) 
-0.1934510356199286

>  <r_i_glide_ligand_efficiency>  (1) 
-0.11946904115310514

>  <r_i_glide_ligand_efficiency_ln>  (1) 
-0.93833701556832105

>  <r_i_glide_ligand_efficiency_sa>  (1) 
-0.3944780823827515

>  <r_i_glide_lipo>  (1) 
-2.5490777851380781

>  <r_i_glide_metal>  (1) 
-0

>  <r_i_glide_rewards>  (1) 
-1.2104587458528231

>  <r_lp_Energy>  (1) 
69.514248999999992

>  <r_lp_tautomer_probability>  (1) 
0.99995000000000001

>  <s_epik_Chemistry_Notes>  (1) 
This compound contains an acetal/aminal-like group ( X-CH(R)-Y where X, Y are N, S, or O) that may be acid/base labile, releasing an aldehyde.

>  <s_epik_cmdline>  (1) 
J2VwaWtfcHl0aG9uJywgJy1waHQnLCAnMS4wJywgJy1waCcsICc3LjQnLCAnLXRuJywgJzgnLCAnLW1hJywgJzUwMCcsICctaW1hZScsICc8aW5maWxlLm1hZT4nLCAnLW9tYWUnLCAnPG91dGZpbGUubWFlPic=

>  <s_epik_input>  (1) 
Tz1DKFtDSDNdKWMoYzFbT0hdKVtjSF1bY0hdYyhjMTIpYzNjKFtjSF1uMilbQ0gyXVtDSDJdTihbQ0gyXTMpW0NIMl1bQ0gyXVtDSDJdW0NIMl1OKFtDSDJdW09IXSlbQ0BIXShbQ0gzXSlbQ0BASF0oW0NIMl1bTkgyXSlbQ0BIXTRbQ0gyXVtDSF09W0NIXVtDSF09W0NIXTQ=

>  <s_glide_docking_method>  (1) 
confgen

>  <s_i_glide_gridfile>  (1) 
gpcr_drd2_6luq_protein_autoprepared_prepared

>  <s_lp_Force_Field>  (1) 
S-OPLS

>  <s_lp_Variant>  (1) 
DiffSBDD_76_num_sample_100-1

>  <s_m_source_file>  (1) 
generated__ligand_DiffSBDD_2026-05-06_prepared.sdf

>  <GenAI_Model>  (1) 
DiffSBDD

>  <Protein>  (1) 
generic_title2

$$$$
DiffSBDD_79_num_sample_100
     RDKit          3D

  0  0  0  0  0  0  0  0  0  0999 V3000
M  V30 BEGIN CTAB
M  V30 COUNTS 54 57 0 0 1
M  V30 BEGIN ATOM
M  V30 1 C 8.121817 4.217474 -16.666623 0
M  V30 2 C 7.711929 3.683991 -14.225134 0
M  V30 3 O 7.470296 1.026365 -13.089225 0
M  V30 4 C 11.205160 6.452769 -5.989945 0
M  V30 5 C 10.934322 7.431875 -6.842607 0
M  V30 6 C 7.706451 1.104699 -14.316249 0
M  V30 7 C 7.835166 5.173029 -9.615337 0
M  V30 8 C 10.051220 6.051270 -8.832948 0 CFG=1
M  V30 9 C 11.117202 6.559027 -4.527932 0
M  V30 10 C 8.774707 5.410662 -8.398525 0
M  V30 11 S 7.866992 5.173911 -15.096680 0
M  V30 12 C 11.890792 8.896763 -4.167312 0
M  V30 13 C 10.623841 8.783068 -6.404002 0
M  V30 14 F 12.604932 9.769324 -3.449832 0
M  V30 15 C 9.866539 7.455637 -9.300046 0 CFG=1
M  V30 16 C 11.971528 7.558685 -3.829924 0
M  V30 17 C 10.951685 7.138863 -8.291780 0 CFG=1
M  V30 18 C 5.734980 4.949322 -11.587265 0
M  V30 19 O 7.857458 0.169398 -15.130078 0 CHG=-1
M  V30 20 C 8.081914 2.663696 -16.394981 0
M  V30 21 C 11.034911 9.416385 -5.260313 0
M  V30 22 C 7.826489 2.560549 -14.913510 0
M  V30 23 C 8.749801 6.875687 -11.491586 0
M  V30 24 N 7.475109 3.797490 -12.852411 0
M  V30 25 O 12.631175 6.975595 -2.938350 0 CHG=-1
M  V30 26 C 7.174444 5.031300 -12.127893 0 CFG=2
M  V30 27 C 9.979320 7.506845 -10.799576 0
M  V30 28 C 8.299150 5.422090 -11.103479 0 CFG=2
M  V30 29 H 9.076034 4.506747 -17.108477 0
M  V30 30 H 7.341783 4.495481 -17.375343 0
M  V30 31 H 11.437855 5.472566 -6.377412 0
M  V30 32 H 7.457273 4.161845 -9.533421 0
M  V30 33 H 6.949935 5.769297 -9.429929 0
M  V30 34 H 10.599872 5.369750 -9.445174 0
M  V30 35 H 10.069456 6.698351 -4.291763 0
M  V30 36 H 11.318089 5.551998 -4.166125 0
M  V30 37 H 9.010938 4.465254 -7.910241 0
M  V30 38 H 8.280598 6.034772 -7.651542 0
M  V30 39 H 10.049635 9.369325 -7.091877 0
M  V30 40 H 9.034856 8.027381 -8.895555 0
M  V30 41 H 11.961318 7.204526 -8.688407 0
M  V30 42 H 5.431428 5.881909 -11.110351 0
M  V30 43 H 5.035530 4.770659 -12.404749 0
M  V30 44 H 5.601708 4.135522 -10.874490 0
M  V30 45 H 9.029477 2.188187 -16.650597 0
M  V30 46 H 7.282704 2.179228 -16.957690 0
M  V30 47 H 10.740352 10.451704 -5.169880 0
M  V30 48 H 8.983923 6.877571 -12.557876 0
M  V30 49 H 7.899808 7.551041 -11.406388 0
M  V30 50 H 7.089082 5.853291 -12.830594 0
M  V30 51 H 10.886890 6.992233 -11.117282 0
M  V30 52 H 10.086413 8.546570 -11.106916 0
M  V30 53 H 9.156235 4.772390 -11.282825 0
M  V30 54 H 7.382959 2.934025 -12.325021 0
M  V30 END ATOM
M  V30 BEGIN BOND
M  V30 1 2 5 4
M  V30 2 2 6 3
M  V30 3 1 9 4
M  V30 4 1 10 7
M  V30 5 1 10 8
M  V30 6 1 11 1
M  V30 7 1 11 2
M  V30 8 1 13 5
M  V30 9 1 14 12
M  V30 10 1 15 8
M  V30 11 1 16 9
M  V30 12 2 16 12
M  V30 13 1 17 5
M  V30 14 1 17 8
M  V30 15 1 17 15
M  V30 16 1 19 6
M  V30 17 1 20 1
M  V30 18 1 21 12
M  V30 19 2 21 13
M  V30 20 2 22 2
M  V30 21 1 22 6
M  V30 22 1 22 20
M  V30 23 1 24 2
M  V30 24 1 25 16
M  V30 25 1 26 18
M  V30 26 1 26 24
M  V30 27 1 27 15
M  V30 28 1 27 23
M  V30 29 1 28 7
M  V30 30 1 28 23
M  V30 31 1 28 26
M  V30 32 1 29 1
M  V30 33 1 30 1
M  V30 34 1 31 4
M  V30 35 1 32 7
M  V30 36 1 33 7
M  V30 37 1 8 34 CFG=3
M  V30 38 1 35 9
M  V30 39 1 36 9
M  V30 40 1 37 10
M  V30 41 1 38 10
M  V30 42 1 39 13
M  V30 43 1 15 40 CFG=1
M  V30 44 1 17 41 CFG=3
M  V30 45 1 42 18
M  V30 46 1 43 18
M  V30 47 1 44 18
M  V30 48 1 45 20
M  V30 49 1 46 20
M  V30 50 1 47 21
M  V30 51 1 48 23
M  V30 52 1 49 23
M  V30 53 1 26 50 CFG=3
M  V30 54 1 51 27
M  V30 55 1 52 27
M  V30 56 1 28 53 CFG=3
M  V30 57 1 54 24
M  V30 END BOND
M  V30 END CTAB
M  END
>  <i_epik_Tot_Q>  (1) 
-2

>  <i_epik_Tot_abs_Q>  (1) 
2

>  <i_i_glide_confnum>  (1) 
50

>  <i_i_glide_lignum>  (1) 
161

>  <i_i_glide_posenum>  (1) 
129

>  <i_i_glide_rotatable_bonds>  (1) 
5

>  <i_lp_mmshare_version>  (1) 
72125

>  <i_m_source_file_index>  (1) 
80

>  <i_f3d_flags>  (1) 
0

>  <num_sample>  (1) 
100

>  <b_lp_Chiralities_Consistent>  (1) 
1

>  <r_epik_Charging_Adjusted_Penalty>  (1) 
2.1010309465817274

>  <r_epik_Ionization_Penalty>  (1) 
1.0507665500608381

>  <r_epik_Ionization_Penalty_Charging>  (1) 
1.0507624105285871

>  <r_epik_Ionization_Penalty_Neutral>  (1) 
4.1395322510490374e-06

>  <r_epik_State_Penalty>  (1) 
1.0502685360531403

>  <r_glide_ring_energy>  (1) 
0

>  <r_i_docking_score>  (1) 
-4.2983098329506992

>  <r_i_glide_ecoul>  (1) 
0.81743954260311213

>  <r_i_glide_eff_state_penalty>  (1) 
1.0502685360531403

>  <r_i_glide_einternal>  (1) 
6.5644529562308396

>  <r_i_glide_emodel>  (1) 
-31.25725482246299

>  <r_i_glide_emodel_strain>  (1) 
1.9221140634554104

>  <r_i_glide_energy>  (1) 
-29.458155312815805

>  <r_i_glide_erotb>  (1) 
0.48233039889226492

>  <r_i_glide_esite>  (1) 
0

>  <r_i_glide_evdw>  (1) 
-30.275594855418916

>  <r_i_glide_gscore>  (1) 
-5.3485783690038398

>  <r_i_glide_gscore_strain>  (1) 
0

>  <r_i_glide_hbond>  (1) 
0

>  <r_i_glide_ligand_efficiency>  (1) 
-0.15351106546252496

>  <r_i_glide_ligand_efficiency_ln>  (1) 
-0.99217611330561717

>  <r_i_glide_ligand_efficiency_sa>  (1) 
-0.46615000844438631

>  <r_i_glide_lipo>  (1) 
-2.3177608552217146

>  <r_i_glide_metal>  (1) 
-0

>  <r_i_glide_rewards>  (1) 
-2.1219841012939105

>  <r_lp_Energy>  (1) 
50.630325999999997

>  <s_epik_cmdline>  (1) 
J2VwaWtfcHl0aG9uJywgJy1waHQnLCAnMS4wJywgJy1waCcsICc3LjQnLCAnLXRuJywgJzgnLCAnLW1hJywgJzUwMCcsICctaW1hZScsICc8aW5maWxlLm1hZT4nLCAnLW9tYWUnLCAnPG91dGZpbGUubWFlPic=

>  <s_epik_input>  (1) 
Tz1DKFtPSF0pW0NASF0xW0NIMl1bQ0gyXVMvQzE9Ti9bQ0BASF0oW0NIM10pW0NASF0oW0NIMl1bQ0gyXTIpW0NIMl1bQ0gyXVtDQEBIXShbQ0BIXTIzKVtDQEhdM0M0PVtDSF1bQ0gyXUMoW09IXSk9QyhGKVtDSF09W0NIXTQ=

>  <s_glide_docking_method>  (1) 
confgen

>  <s_i_glide_gridfile>  (1) 
gpcr_drd2_6luq_protein_autoprepared_prepared

>  <s_lp_Force_Field>  (1) 
S-OPLS

>  <s_lp_Variant>  (1) 
DiffSBDD_79_num_sample_100-2

>  <s_m_source_file>  (1) 
generated__ligand_DiffSBDD_2026-05-06_prepared.sdf

>  <GenAI_Model>  (1) 
DiffSBDD

>  <Protein>  (1) 
generic_title2

$$$$
DiffSBDD_11_num_sample_100
     RDKit          3D

  0  0  0  0  0  0  0  0  0  0999 V3000
M  V30 BEGIN CTAB
M  V30 COUNTS 56 58 0 0 1
M  V30 BEGIN ATOM
M  V30 1 C 8.509140 4.820627 -17.148655 0 CFG=1
M  V30 2 C 10.578655 6.684187 -8.756198 0 CFG=1
M  V30 3 N 10.966044 5.088499 -17.062660 0
M  V30 4 C 8.644486 5.113947 -10.164253 0 CFG=1
M  V30 5 O 12.628764 3.570787 -17.259679 0
M  V30 6 C 8.377076 5.766545 -18.358278 0
M  V30 7 S 8.474974 4.969303 -8.356073 0
M  V30 8 O 12.059855 9.391672 -6.559822 0
M  V30 9 O 9.929328 7.305554 -9.850613 0
M  V30 10 C 7.281717 4.920586 -10.760723 0
M  V30 11 C 7.560674 4.751141 -14.701094 0
M  V30 12 C 9.434340 6.703091 -6.542621 0
M  V30 13 C 11.666063 7.581540 -8.119395 0
M  V30 14 C 7.045033 4.735089 -12.254202 0
M  V30 15 C 5.655726 4.168579 -12.555792 0
M  V30 16 C 12.256318 4.736120 -17.132646 0
M  V30 17 C 9.546781 6.213376 -7.779416 0
M  V30 18 C 9.878586 4.117097 -17.134978 0
M  V30 19 C 7.963751 5.035869 -13.264089 0
M  V30 20 C 13.275501 5.866126 -17.049895 0
M  V30 21 Cl 11.434753 7.118972 -4.751709 0
M  V30 22 C 9.110522 6.470684 -10.690887 0 CFG=1
M  V30 23 C 8.219608 5.576373 -15.826314 0
M  V30 24 C 10.322206 7.790844 -5.983503 0 CFG=1
M  V30 25 C 11.064496 8.545871 -7.100257 0 CFG=1
M  V30 26 O 6.720796 3.911013 -15.009060 0
M  V30 27 C 9.834229 6.224182 -11.970415 0
M  V30 28 C 9.333670 5.621129 -13.075909 0
M  V30 29 H 7.757679 4.042912 -17.288846 0
M  V30 30 H 11.034871 5.773382 -9.091555 0
M  V30 31 H 10.724885 6.062632 -16.962915 0
M  V30 32 H 9.322342 4.312330 -10.464860 0
M  V30 33 H 9.112620 6.569292 -18.328022 0
M  V30 34 H 7.390141 6.229995 -18.392319 0
M  V30 35 H 8.516391 5.232863 -19.298168 0
M  V30 36 H 11.661667 9.943958 -5.904909 0
M  V30 37 H 6.862899 4.031186 -10.290397 0
M  V30 38 H 6.620184 5.724330 -10.431102 0
M  V30 39 H 8.666478 6.320214 -5.891683 0
M  V30 40 H 12.379122 6.969318 -7.569900 0
M  V30 41 H 12.231704 8.107935 -8.887987 0
M  V30 42 H 5.034921 4.230605 -11.663060 0
M  V30 43 H 5.710377 3.114221 -12.828482 0
M  V30 44 H 5.127796 4.730981 -13.326182 0
M  V30 45 H 9.938263 3.433492 -16.292207 0
M  V30 46 H 9.988161 3.506475 -18.033244 0
M  V30 47 H 13.161424 6.425047 -16.120744 0
M  V30 48 H 13.148758 6.553642 -17.885467 0
M  V30 49 H 14.291520 5.470760 -17.085234 0
M  V30 50 H 8.274882 7.106874 -10.979906 0
M  V30 51 H 9.075154 6.166733 -15.524356 0
M  V30 52 H 7.451562 6.318990 -16.046063 0
M  V30 53 H 9.681182 8.511178 -5.491630 0
M  V30 54 H 10.340111 9.161845 -7.626451 0
M  V30 55 H 10.850321 6.588589 -12.003294 0
M  V30 56 H 10.007550 5.555888 -13.914884 0
M  V30 END ATOM
M  V30 BEGIN BOND
M  V30 1 1 6 1
M  V30 2 1 7 4
M  V30 3 1 9 2
M  V30 4 1 10 4
M  V30 5 1 13 2
M  V30 6 1 14 10
M  V30 7 1 15 14
M  V30 8 1 16 3
M  V30 9 2 16 5
M  V30 10 1 17 2
M  V30 11 1 17 7
M  V30 12 2 17 12
M  V30 13 1 18 1
M  V30 14 1 18 3
M  V30 15 1 19 11
M  V30 16 2 19 14
M  V30 17 1 20 16
M  V30 18 1 22 4
M  V30 19 1 22 9
M  V30 20 1 23 1
M  V30 21 1 23 11
M  V30 22 1 24 12
M  V30 23 1 24 21
M  V30 24 1 25 8
M  V30 25 1 25 13
M  V30 26 1 25 24
M  V30 27 2 26 11
M  V30 28 1 27 22
M  V30 29 1 28 19
M  V30 30 2 28 27
M  V30 31 1 1 29 CFG=3
M  V30 32 1 2 30 CFG=3
M  V30 33 1 31 3
M  V30 34 1 4 32 CFG=3
M  V30 35 1 33 6
M  V30 36 1 34 6
M  V30 37 1 35 6
M  V30 38 1 36 8
M  V30 39 1 37 10
M  V30 40 1 38 10
M  V30 41 1 39 12
M  V30 42 1 40 13
M  V30 43 1 41 13
M  V30 44 1 42 15
M  V30 45 1 43 15
M  V30 46 1 44 15
M  V30 47 1 45 18
M  V30 48 1 46 18
M  V30 49 1 47 20
M  V30 50 1 48 20
M  V30 51 1 49 20
M  V30 52 1 22 50 CFG=3
M  V30 53 1 51 23
M  V30 54 1 52 23
M  V30 55 1 24 53 CFG=1
M  V30 56 1 25 54 CFG=3
M  V30 57 1 55 27
M  V30 58 1 56 28
M  V30 END BOND
M  V30 END CTAB
M  END
>  <i_epik_Tot_Q>  (1) 
0

>  <i_epik_Tot_abs_Q>  (1) 
0

>  <i_i_glide_confnum>  (1) 
111

>  <i_i_glide_lignum>  (1) 
18

>  <i_i_glide_posenum>  (1) 
245

>  <i_i_glide_rotatable_bonds>  (1) 
7

>  <i_lp_mmshare_version>  (1) 
72125

>  <i_m_source_file_index>  (1) 
12

>  <i_f3d_flags>  (1) 
0

>  <num_sample>  (1) 
100

>  <b_lp_Chiralities_Consistent>  (1) 
1

>  <r_epik_Charging_Adjusted_Penalty>  (1) 
0

>  <r_epik_Ionization_Penalty>  (1) 
0.000136015572717869

>  <r_epik_Ionization_Penalty_Charging>  (1) 
0

>  <r_epik_Ionization_Penalty_Neutral>  (1) 
0.000136015572717869

>  <r_epik_State_Penalty>  (1) 
-0

>  <r_glide_ring_energy>  (1) 
0

>  <r_i_docking_score>  (1) 
-4.2929865147446247

>  <r_i_glide_ecoul>  (1) 
-0.93260421227399593

>  <r_i_glide_eff_state_penalty>  (1) 
-0

>  <r_i_glide_einternal>  (1) 
3.7571570880683396

>  <r_i_glide_emodel>  (1) 
-39.0496301900723

>  <r_i_glide_emodel_strain>  (1) 
1.2339754048538012

>  <r_i_glide_energy>  (1) 
-33.047385766447015

>  <r_i_glide_erotb>  (1) 
0.5467392007768872

>  <r_i_glide_esite>  (1) 
0

>  <r_i_glide_evdw>  (1) 
-32.114781554173021

>  <r_i_glide_gscore>  (1) 
-4.2929865147446247

>  <r_i_glide_gscore_strain>  (1) 
0

>  <r_i_glide_hbond>  (1) 
0

>  <r_i_glide_ligand_efficiency>  (1) 
-0.15332094695516515

>  <r_i_glide_ligand_efficiency_ln>  (1) 
-0.99094733516424105

>  <r_i_glide_ligand_efficiency_sa>  (1) 
-0.46557269668158807

>  <r_i_glide_lipo>  (1) 
-1.7302971230922795

>  <r_i_glide_metal>  (1) 
-0

>  <r_i_glide_rewards>  (1) 
-1.3637988828794818

>  <r_lp_Energy>  (1) 
23.239920999999999

>  <r_lp_tautomer_probability>  (1) 
1

>  <s_epik_cmdline>  (1) 
J2VwaWtfcHl0aG9uJywgJy1waHQnLCAnMS4wJywgJy1waCcsICc3LjQnLCAnLXRuJywgJzgnLCAnLW1hJywgJzUwMCcsICctaW1hZScsICc8aW5maWxlLm1hZT4nLCAnLW9tYWUnLCAnPG91dGZpbGUubWFlPic=

>  <s_epik_input>  (1) 
Tz1DKFtDSDNdKVtOSF1bQ0gyXVtDQEhdKFtDSDNdKVtDSDJdQyg9TylDKD1DKFtDSDJdMSlbQ0gzXSlbQ0hdPVtDSF1bQ0BIXShPMilbQ0BIXTFTQyhbQ0BASF0yMyk9W0NIXVtDQEBIXShDbClbQ0BASF0oW09IXSlbQ0gyXTM=

>  <s_glide_docking_method>  (1) 
confgen

>  <s_i_glide_gridfile>  (1) 
gpcr_drd2_6luq_protein_autoprepared_prepared

>  <s_lp_Force_Field>  (1) 
S-OPLS

>  <s_lp_Variant>  (1) 
DiffSBDD_11_num_sample_100-1

>  <s_m_source_file>  (1) 
generated__ligand_DiffSBDD_2026-05-06_prepared.sdf

>  <GenAI_Model>  (1) 
DiffSBDD

>  <Protein>  (1) 
generic_title2

$$$$
DiffSBDD_29_num_sample_100
     RDKit          3D

  0  0  0  0  0  0  0  0  0  0999 V3000
M  V30 BEGIN CTAB
M  V30 COUNTS 73 77 0 0 1
M  V30 BEGIN ATOM
M  V30 1 F 3.752203 4.591748 -22.291675 0
M  V30 2 O 6.833249 5.260122 -16.076680 0
M  V30 3 N 8.233374 1.701709 -13.704226 0
M  V30 4 C 7.898011 6.920560 -12.888723 0
M  V30 5 N 5.804241 7.607476 -21.706541 0
M  V30 6 C 8.202421 8.237516 -21.780397 0
M  V30 7 C 8.241062 3.295537 -16.283391 0 CFG=1
M  V30 8 C 9.779092 6.567696 -20.918339 0
M  V30 9 C 7.159480 7.347218 -21.484279 0
M  V30 10 C 7.481347 0.805525 -14.464525 0
M  V30 11 C 6.208484 4.980382 -13.241260 0
M  V30 12 N 7.663883 1.604785 -17.993293 0
M  V30 13 C 9.796366 6.659679 -11.240354 0 CFG=2
M  V30 14 O 10.577892 7.369298 -10.301325 0
M  V30 15 O 7.405093 0.971848 -20.491819 0
M  V30 16 C 8.739864 3.745784 -12.381320 0
M  V30 17 C 8.054196 4.777828 -11.464057 0 CFG=2
M  V30 18 C 5.017910 6.346852 -21.368321 0 CFG=2
M  V30 19 C 5.949480 4.218047 -20.270768 0
M  V30 20 C 9.018562 4.010375 -17.415517 0
M  V30 21 C 7.019290 0.960824 -15.737247 0
M  V30 22 C 7.663186 4.380230 -15.336398 0 CFG=2
M  V30 23 N 6.957576 3.403018 -19.754272 0
M  V30 24 C 8.694804 5.697588 -20.647115 0
M  V30 25 C 6.150057 5.449414 -20.804758 0
M  V30 26 C 7.132043 5.742782 -12.250580 0 CFG=1
M  V30 27 C 9.531325 7.845269 -21.491663 0
M  V30 28 C 8.820394 7.642609 -11.892404 0
M  V30 29 F 3.433322 6.580525 -23.091686 0
M  V30 30 C 7.683799 2.953087 -13.180848 0 CFG=1
M  V30 31 C 9.034455 5.526324 -10.532035 0
M  V30 32 C 7.258631 2.153478 -16.688846 0 CFG=1
M  V30 33 C 6.874895 3.867299 -14.112324 0 CFG=1
M  V30 34 C 4.346154 5.740123 -22.606706 0
M  V30 35 C 7.388401 6.137315 -20.952969 0
M  V30 36 O 5.313643 1.498263 -19.091665 0
M  V30 37 S 6.723805 1.730900 -19.433893 0
M  V30 38 H 6.600774 5.988937 -15.522080 0
M  V30 39 H 8.515826 6.569292 -13.705546 0
M  V30 40 H 7.194756 7.634757 -13.317941 0
M  V30 41 H 5.518828 8.180219 -22.488191 0
M  V30 42 H 7.996210 9.205426 -22.213462 0
M  V30 43 H 9.034839 2.770116 -15.796766 0
M  V30 44 H 10.790486 6.259557 -20.696780 0
M  V30 45 H 7.289236 -0.117508 -13.935213 0
M  V30 46 H 5.444532 4.488017 -12.637275 0
M  V30 47 H 5.646468 5.686789 -13.851179 0
M  V30 48 H 8.599418 1.211458 -18.082365 0
M  V30 49 H 10.462367 6.242131 -11.996817 0
M  V30 50 H 9.988800 7.732002 -9.654654 0
M  V30 51 H 9.457786 4.223264 -13.047830 0
M  V30 52 H 9.318651 3.058364 -11.762791 0
M  V30 53 H 7.406081 4.200262 -10.802607 0
M  V30 54 H 4.289153 6.559319 -20.585963 0
M  V30 55 H 4.965654 3.776758 -20.201141 0
M  V30 56 H 8.368203 4.643768 -18.012482 0
M  V30 57 H 9.542149 3.321146 -18.076898 0
M  V30 58 H 9.782695 4.665166 -16.995433 0
M  V30 59 H 8.516109 4.959621 -14.999273 0
M  V30 60 H 7.908821 3.661267 -19.999651 0
M  V30 61 H 8.878950 4.728750 -20.228150 0
M  V30 62 H 6.473134 6.205658 -11.512893 0
M  V30 63 H 10.353032 8.513411 -21.705965 0
M  V30 64 H 8.234836 8.144127 -11.124549 0
M  V30 65 H 9.374184 8.429139 -12.404497 0
M  V30 66 H 6.964116 2.592483 -12.444200 0
M  V30 67 H 9.733258 4.823049 -10.078403 0
M  V30 68 H 8.462012 5.951156 -9.705567 0
M  V30 69 H 6.274500 2.569298 -16.854245 0
M  V30 70 H 6.048064 3.279872 -14.491757 0
M  V30 71 H 5.062672 5.529657 -23.401751 0
M  V30 72 H 6.451666 0.147155 -16.166969 0
M  V30 73 H 8.808932 1.255753 -13.000097 0
M  V30 END ATOM
M  V30 BEGIN BOND
M  V30 1 1 9 5
M  V30 2 2 9 6
M  V30 3 1 10 3
M  V30 4 1 14 13
M  V30 5 1 17 16
M  V30 6 1 18 5
M  V30 7 1 20 7
M  V30 8 2 21 10
M  V30 9 1 22 2
M  V30 10 1 22 7
M  V30 11 1 23 19
M  V30 12 1 24 8
M  V30 13 1 25 18
M  V30 14 2 25 19
M  V30 15 1 26 4
M  V30 16 1 26 11
M  V30 17 1 26 17
M  V30 18 1 27 6
M  V30 19 2 27 8
M  V30 20 1 28 4
M  V30 21 1 28 13
M  V30 22 1 30 3
M  V30 23 1 30 16
M  V30 24 1 31 13
M  V30 25 1 31 17
M  V30 26 1 32 7
M  V30 27 1 32 12
M  V30 28 1 32 21
M  V30 29 1 33 11
M  V30 30 1 33 22
M  V30 31 1 33 30
M  V30 32 1 34 1
M  V30 33 1 34 18
M  V30 34 1 34 29
M  V30 35 1 35 9
M  V30 36 2 35 24
M  V30 37 1 35 25
M  V30 38 1 37 12
M  V30 39 2 37 15
M  V30 40 1 37 23
M  V30 41 2 37 36
M  V30 42 1 38 2
M  V30 43 1 39 4
M  V30 44 1 40 4
M  V30 45 1 41 5
M  V30 46 1 42 6
M  V30 47 1 7 43 CFG=1
M  V30 48 1 44 8
M  V30 49 1 45 10
M  V30 50 1 46 11
M  V30 51 1 47 11
M  V30 52 1 48 12
M  V30 53 1 13 49 CFG=3
M  V30 54 1 50 14
M  V30 55 1 51 16
M  V30 56 1 52 16
M  V30 57 1 17 53 CFG=1
M  V30 58 1 18 54 CFG=1
M  V30 59 1 55 19
M  V30 60 1 56 20
M  V30 61 1 57 20
M  V30 62 1 58 20
M  V30 63 1 22 59 CFG=1
M  V30 64 1 60 23
M  V30 65 1 61 24
M  V30 66 1 26 62 CFG=1
M  V30 67 1 63 27
M  V30 68 1 64 28
M  V30 69 1 65 28
M  V30 70 1 30 66 CFG=1
M  V30 71 1 67 31
M  V30 72 1 68 31
M  V30 73 1 32 69 CFG=3
M  V30 74 1 33 70 CFG=3
M  V30 75 1 71 34
M  V30 76 1 72 21
M  V30 77 1 73 3
M  V30 END BOND
M  V30 END CTAB
M  END
>  <i_epik_Tot_Q>  (1) 
0

>  <i_epik_Tot_abs_Q>  (1) 
0

>  <i_i_glide_confnum>  (1) 
9

>  <i_i_glide_lignum>  (1) 
54

>  <i_i_glide_posenum>  (1) 
355

>  <i_i_glide_rotatable_bonds>  (1) 
7

>  <i_lp_mmshare_version>  (1) 
72125

>  <i_m_source_file_index>  (1) 
30

>  <i_f3d_flags>  (1) 
0

>  <num_sample>  (1) 
100

>  <b_lp_Chiralities_Consistent>  (1) 
1

>  <r_epik_Charging_Adjusted_Penalty>  (1) 
1.5459132844328078e-07

>  <r_epik_Ionization_Penalty>  (1) 
1.5952634643945804

>  <r_epik_Ionization_Penalty_Charging>  (1) 
1.5459132844328078e-07

>  <r_epik_Ionization_Penalty_Neutral>  (1) 
1.595263309803252

>  <r_epik_State_Penalty>  (1) 
-0

>  <r_glide_ring_energy>  (1) 
0

>  <r_i_docking_score>  (1) 
-4.2893881834141574

>  <r_i_glide_ecoul>  (1) 
-4.1439978889903877

>  <r_i_glide_eff_state_penalty>  (1) 
-0

>  <r_i_glide_einternal>  (1) 
2.9742168806660025

>  <r_i_glide_emodel>  (1) 
-44.58926887475225

>  <r_i_glide_emodel_strain>  (1) 
0.49151992362152441

>  <r_i_glide_energy>  (1) 
-38.206811682722886

>  <r_i_glide_erotb>  (1) 
0.28486469644810641

>  <r_i_glide_esite>  (1) 
-0.0074462857980134058

>  <r_i_glide_evdw>  (1) 
-34.062813793732495

>  <r_i_glide_gscore>  (1) 
-4.2893881834141574

>  <r_i_glide_gscore_strain>  (1) 
0

>  <r_i_glide_hbond>  (1) 
0

>  <r_i_glide_ligand_efficiency>  (1) 
-0.1159294103625448

>  <r_i_glide_ligand_efficiency_ln>  (1) 
-0.93026773945631169

>  <r_i_glide_ligand_efficiency_sa>  (1) 
-0.38630251445850261

>  <r_i_glide_lipo>  (1) 
-1.8488941434260038

>  <r_i_glide_metal>  (1) 
-0

>  <r_i_glide_rewards>  (1) 
-0.39317207760306372

>  <r_lp_Energy>  (1) 
50.533285999999997

>  <r_lp_tautomer_probability>  (1) 
1

>  <s_epik_Chemistry_Notes>  (1) 
This compound has an imine and may undergo hydrolysis.

>  <s_epik_cmdline>  (1) 
J2VwaWtfcHl0aG9uJywgJy1waHQnLCAnMS4wJywgJy1waCcsICc3LjQnLCAnLXRuJywgJzgnLCAnLW1hJywgJzUwMCcsICctaW1hZScsICc8aW5maWxlLm1hZT4nLCAnLW9tYWUnLCAnPG91dGZpbGUubWFlPic=

>  <s_epik_input>  (1) 
W2NIXTFbY0hdW2NIXVtjSF1jKGMxMilDKC9bQ0BASF0oW05IXTIpW0NIXShGKUYpPVtDSF1cW05IXVMoPU8pKD1PKVtOSF1bQ0BIXShbQ0BASF0oW0NIM10pW0NASF0zW09IXSlbQ0gyXVxbQ0hdPU5cW0NAQEhdKFtDSDJdNClbQ0BIXTNbQ0gyXVtDQEBIXShbQ0BASF00NSlbQ0gyXVtDSDJdW0NASF0oW09IXSlbQ0gyXTU=

>  <s_glide_docking_method>  (1) 
confgen

>  <s_i_glide_gridfile>  (1) 
gpcr_drd2_6luq_protein_autoprepared_prepared

>  <s_lp_Force_Field>  (1) 
S-OPLS

>  <s_lp_Variant>  (1) 
DiffSBDD_29_num_sample_100-4

>  <s_m_source_file>  (1) 
generated__ligand_DiffSBDD_2026-05-06_prepared.sdf

>  <GenAI_Model>  (1) 
DiffSBDD

>  <Protein>  (1) 
generic_title2

$$$$
DiffSBDD_6_num_sample_100
     RDKit          3D

  0  0  0  0  0  0  0  0  0  0999 V3000
M  V30 BEGIN CTAB
M  V30 COUNTS 65 68 0 0 1
M  V30 BEGIN ATOM
M  V30 1 N 8.585098 5.480109 -10.528756 0
M  V30 2 N 7.038566 4.487259 -17.335843 0
M  V30 3 C 6.560973 5.529625 -18.181729 0
M  V30 4 C 5.424210 6.882361 -16.296896 0
M  V30 5 C 12.237481 8.613855 -9.333409 0
M  V30 6 N 8.247458 5.347203 -14.348810 0 CFG=1 CHG=1
M  V30 7 C 9.410512 6.072178 -9.537511 0
M  V30 8 F 6.403439 6.349946 -20.407334 0
M  V30 9 C 6.498246 3.224796 -12.588199 0
M  V30 10 C 7.323220 4.840266 -10.150862 0
M  V30 11 C 7.553462 5.947199 -15.476776 0 CFG=1
M  V30 12 F 12.636250 8.169364 -10.520702 0
M  V30 13 C 7.784123 5.507995 -12.934171 0 CFG=2
M  V30 14 C 7.036324 4.589011 -15.874065 0 CFG=2
M  V30 15 C 8.253818 4.072334 -15.083639 0
M  V30 16 F 11.834866 9.863227 -9.491842 0
M  V30 17 C 9.705303 7.303102 -6.706520 0
M  V30 18 C 9.034921 6.214145 -7.067742 0
M  V30 19 C 11.063708 7.835891 -8.795806 0
M  V30 20 C 8.975036 5.280734 -11.959301 0 CFG=1
M  V30 21 F 8.883361 3.402626 -18.162302 0
M  V30 22 C 9.379041 5.370092 -8.218990 0
M  V30 23 C 10.821474 7.894161 -7.442416 0
M  V30 24 C 6.559895 7.078392 -15.292093 0
M  V30 25 C 10.233472 5.993282 -12.523343 0
M  V30 26 F 8.215999 5.317659 -19.870360 0
M  V30 27 C 5.854153 6.614299 -17.740703 0
M  V30 28 C 6.476628 4.767721 -12.519615 0 CFG=2
M  V30 29 C 10.197648 7.139345 -9.772252 0
M  V30 30 C 6.899988 5.359451 -19.663880 0
M  V30 31 C 6.165744 5.210395 -11.086067 0
M  V30 32 C 7.593776 3.242800 -17.866648 0
M  V30 33 F 13.275292 8.569256 -8.498089 0
M  V30 34 H 4.796716 7.775370 -16.301256 0
M  V30 35 H 4.761626 6.078524 -15.974785 0
M  V30 36 H 5.835929 2.783204 -11.847763 0
M  V30 37 H 6.157417 2.858388 -13.555446 0
M  V30 38 H 7.487732 2.813957 -12.390730 0
M  V30 39 H 7.447123 3.769669 -10.096994 0
M  V30 40 H 7.034133 5.180531 -9.158228 0
M  V30 41 H 8.334992 6.169304 -16.202004 0
M  V30 42 H 7.583244 6.573969 -12.820681 0
M  V30 43 H 6.088751 4.337067 -15.403319 0
M  V30 44 H 9.160837 4.004155 -15.686836 0
M  V30 45 H 8.120680 3.151632 -14.525239 0
M  V30 46 H 9.401928 7.789469 -5.792882 0
M  V30 47 H 8.217016 5.870842 -6.449738 0
M  V30 48 H 9.224445 4.219627 -11.996638 0
M  V30 49 H 8.780628 4.462539 -8.182185 0
M  V30 50 H 10.393081 5.006279 -8.049830 0
M  V30 51 H 11.498925 8.504019 -6.863324 0
M  V30 52 H 7.034449 8.048134 -15.441813 0
M  V30 53 H 6.112019 7.109061 -14.300642 0
M  V30 54 H 10.561318 5.566684 -13.467406 0
M  V30 55 H 10.048988 7.048992 -12.720442 0
M  V30 56 H 11.102063 5.901844 -11.892025 0
M  V30 57 H 5.538461 7.355887 -18.460765 0
M  V30 58 H 5.649764 5.111069 -13.139971 0
M  V30 59 H 10.189326 7.550099 -10.755715 0
M  V30 60 H 6.458158 4.452418 -20.071201 0
M  V30 61 H 5.242635 4.749410 -10.731395 0
M  V30 62 H 5.989480 6.287291 -11.047728 0
M  V30 63 H 7.535383 2.438414 -17.132432 0
M  V30 64 H 7.074647 2.896127 -18.757992 0
M  V30 65 H 9.189369 5.713070 -14.358305 0
M  V30 END ATOM
M  V30 BEGIN BOND
M  V30 1 1 3 2
M  V30 2 1 7 1
M  V30 3 1 10 1
M  V30 4 1 11 6
M  V30 5 1 12 5
M  V30 6 1 13 6
M  V30 7 1 14 2
M  V30 8 1 14 11
M  V30 9 1 15 6
M  V30 10 1 15 14
M  V30 11 1 16 5
M  V30 12 2 18 17
M  V30 13 1 19 5
M  V30 14 1 20 1
M  V30 15 1 20 13
M  V30 16 1 22 7
M  V30 17 1 22 18
M  V30 18 1 23 17
M  V30 19 2 23 19
M  V30 20 1 24 4
M  V30 21 1 24 11
M  V30 22 1 25 20
M  V30 23 2 27 3
M  V30 24 1 27 4
M  V30 25 1 28 9
M  V30 26 1 28 13
M  V30 27 2 29 7
M  V30 28 1 29 19
M  V30 29 1 30 3
M  V30 30 1 30 8
M  V30 31 1 30 26
M  V30 32 1 31 10
M  V30 33 1 31 28
M  V30 34 1 32 2
M  V30 35 1 32 21
M  V30 36 1 33 5
M  V30 37 1 34 4
M  V30 38 1 35 4
M  V30 39 1 36 9
M  V30 40 1 37 9
M  V30 41 1 38 9
M  V30 42 1 39 10
M  V30 43 1 40 10
M  V30 44 1 11 41 CFG=3
M  V30 45 1 13 42 CFG=3
M  V30 46 1 14 43 CFG=1
M  V30 47 1 44 15
M  V30 48 1 45 15
M  V30 49 1 46 17
M  V30 50 1 47 18
M  V30 51 1 20 48 CFG=1
M  V30 52 1 49 22
M  V30 53 1 50 22
M  V30 54 1 51 23
M  V30 55 1 52 24
M  V30 56 1 53 24
M  V30 57 1 54 25
M  V30 58 1 55 25
M  V30 59 1 56 25
M  V30 60 1 57 27
M  V30 61 1 28 58 CFG=3
M  V30 62 1 59 29
M  V30 63 1 60 30
M  V30 64 1 61 31
M  V30 65 1 62 31
M  V30 66 1 63 32
M  V30 67 1 64 32
M  V30 68 1 6 65 CFG=1
M  V30 END BOND
M  V30 END CTAB
M  END
>  <i_epik_Tot_Q>  (1) 
1

>  <i_epik_Tot_abs_Q>  (1) 
1

>  <i_i_glide_confnum>  (1) 
26

>  <i_i_glide_lignum>  (1) 
11

>  <i_i_glide_posenum>  (1) 
102

>  <i_i_glide_rotatable_bonds>  (1) 
5

>  <i_lp_mmshare_version>  (1) 
72125

>  <i_m_source_file_index>  (1) 
7

>  <i_f3d_flags>  (1) 
0

>  <num_sample>  (1) 
100

>  <b_lp_Chiralities_Consistent>  (1) 
1

>  <r_epik_Charging_Adjusted_Penalty>  (1) 
2.2946868864184928

>  <r_epik_Ionization_Penalty>  (1) 
1.147343534253078

>  <r_epik_Ionization_Penalty_Charging>  (1) 
1.1473434712357071

>  <r_epik_Ionization_Penalty_Neutral>  (1) 
6.301737089438289e-08

>  <r_epik_State_Penalty>  (1) 
1.1473434151827855

>  <r_glide_ring_energy>  (1) 
0.067460085264342703

>  <r_i_docking_score>  (1) 
-4.2853680605973086

>  <r_i_glide_ecoul>  (1) 
-1.6576767090496369

>  <r_i_glide_eff_state_penalty>  (1) 
1.1473434151827855

>  <r_i_glide_einternal>  (1) 
22.327909832988382

>  <r_i_glide_emodel>  (1) 
-25.577238386687753

>  <r_i_glide_emodel_strain>  (1) 
2.9261514194101608

>  <r_i_glide_energy>  (1) 
-31.112254112065315

>  <r_i_glide_erotb>  (1) 
0.17835229215497114

>  <r_i_glide_esite>  (1) 
-0.059396334224911765

>  <r_i_glide_evdw>  (1) 
-29.45457740301568

>  <r_i_glide_gscore>  (1) 
-5.4327114757800938

>  <r_i_glide_gscore_strain>  (1) 
0

>  <r_i_glide_hbond>  (1) 
0

>  <r_i_glide_ligand_efficiency>  (1) 
-0.12985963819991844

>  <r_i_glide_ligand_efficiency_ln>  (1) 
-0.95304366822852382

>  <r_i_glide_ligand_efficiency_sa>  (1) 
-0.41652924760707588

>  <r_i_glide_lipo>  (1) 
-2.3286112637959775

>  <r_i_glide_metal>  (1) 
-0

>  <r_i_glide_rewards>  (1) 
-1.5016757934059455

>  <r_lp_Energy>  (1) 
67.908214999999998

>  <s_epik_Chemistry_Notes>  (1) 
This compound has an imine and may undergo hydrolysis.

>  <s_epik_cmdline>  (1) 
J2VwaWtfcHl0aG9uJywgJy1waHQnLCAnMS4wJywgJy1waCcsICc3LjQnLCAnLXRuJywgJzgnLCAnLW1hJywgJzUwMCcsICctaW1hZScsICc8aW5maWxlLm1hZT4nLCAnLW9tYWUnLCAnPG91dGZpbGUubWFlPic=

>  <s_epik_input>  (1) 
W0NIMl0xW0NIXT1bQ0hdW0NIXT1DKEMoRikoRilGKVtDSF09QzFOMltDSDJdW0NIMl1bQ0BIXShbQ0gzXSlbQ0BASF0oW0NASF0yW0NIM10pTjNbQ0gyXVtDQEBIXShbQ0BIXTM0KU4oW0NIMl1GKUMoW0NIXShGKUYpPVtDSF1bQ0gyXVtDSDJdNA==

>  <s_glide_docking_method>  (1) 
confgen

>  <s_i_glide_gridfile>  (1) 
gpcr_drd2_6luq_protein_autoprepared_prepared

>  <s_lp_Force_Field>  (1) 
S-OPLS

>  <s_lp_Variant>  (1) 
DiffSBDD_6_num_sample_100-3

>  <s_m_source_file>  (1) 
generated__ligand_DiffSBDD_2026-05-06_prepared.sdf

>  <GenAI_Model>  (1) 
DiffSBDD

>  <Protein>  (1) 
generic_title2

$$$$
DiffSBDD_1_num_sample_100
     RDKit          3D

  0  0  0  0  0  0  0  0  0  0999 V3000
M  V30 BEGIN CTAB
M  V30 COUNTS 36 37 0 0 1
M  V30 BEGIN ATOM
M  V30 1 C 9.109965 6.276318 -11.017358 0
M  V30 2 C 7.801913 4.777355 -14.431388 0 CFG=2
M  V30 3 C 7.342689 6.109195 -15.053278 0 CFG=1
M  V30 4 Cl 6.248091 5.871181 -16.439367 0
M  V30 5 O 5.787616 6.169301 -11.091667 0
M  V30 6 C 6.736693 7.106167 -14.060798 0
M  V30 7 C 5.730881 4.016701 -13.363626 0
M  V30 8 C 7.626540 7.282668 -12.821026 0
M  V30 9 C 6.246359 3.969499 -11.931379 0
M  V30 10 C 8.044049 5.952297 -12.114338 0 CFG=1
M  V30 11 O 12.599348 8.169302 -10.291667 0
M  V30 12 O 6.774440 3.799703 -14.298249 0
M  V30 13 P 11.215927 7.804329 -9.913876 0
M  V30 14 C 8.669173 4.997414 -13.168231 0
M  V30 15 O 11.008861 6.966067 -8.715528 0 CHG=-1
M  V30 16 C 10.431854 6.969305 -11.418192 0
M  V30 17 C 6.840420 5.269414 -11.361799 0 CFG=1
M  V30 18 H 9.376473 5.364816 -10.479582 0
M  V30 19 H 8.634839 6.915166 -10.276769 0
M  V30 20 H 8.461609 4.316895 -15.167921 0
M  V30 21 H 8.234839 6.569301 -15.464483 0
M  V30 22 H 6.143315 6.831696 -10.490105 0
M  V30 23 H 6.639159 8.062942 -14.574286 0
M  V30 24 H 5.725580 6.845059 -13.765162 0
M  V30 25 H 5.051961 3.174725 -13.491666 0
M  V30 26 H 5.121550 4.888234 -13.576524 0
M  V30 27 H 8.505253 7.812247 -13.161690 0
M  V30 28 H 7.161243 7.975585 -12.118887 0
M  V30 29 H 5.434841 3.658725 -11.272635 0
M  V30 30 H 6.982215 3.171005 -11.891668 0
M  V30 31 H 8.947131 4.042400 -12.721428 0
M  V30 32 H 9.610480 5.429257 -13.508345 0
M  V30 33 H 11.112715 6.262792 -11.891667 0
M  V30 34 H 10.278116 7.757177 -12.147219 0
M  V30 35 H 7.178314 4.976828 -10.366283 0
M  V30 36 H 10.469454 9.000325 -9.732958 0
M  V30 END ATOM
M  V30 BEGIN BOND
M  V30 1 1 3 2
M  V30 2 1 4 3
M  V30 3 1 6 3
M  V30 4 1 8 6
M  V30 5 1 9 7
M  V30 6 1 10 1 CFG=1
M  V30 7 1 10 8
M  V30 8 1 12 2
M  V30 9 1 12 7
M  V30 10 2 13 11
M  V30 11 1 14 2
M  V30 12 1 14 10
M  V30 13 1 15 13
M  V30 14 1 16 1
M  V30 15 1 16 13
M  V30 16 1 17 5
M  V30 17 1 17 9
M  V30 18 1 17 10
M  V30 19 1 18 1
M  V30 20 1 19 1
M  V30 21 1 2 20 CFG=3
M  V30 22 1 3 21 CFG=3
M  V30 23 1 22 5
M  V30 24 1 23 6
M  V30 25 1 24 6
M  V30 26 1 25 7
M  V30 27 1 26 7
M  V30 28 1 27 8
M  V30 29 1 28 8
M  V30 30 1 29 9
M  V30 31 1 30 9
M  V30 32 1 31 14
M  V30 33 1 32 14
M  V30 34 1 33 16
M  V30 35 1 34 16
M  V30 36 1 17 35 CFG=1
M  V30 37 1 36 13
M  V30 END BOND
M  V30 END CTAB
M  END
>  <i_epik_Tot_Q>  (1) 
-1

>  <i_epik_Tot_abs_Q>  (1) 
1

>  <i_i_glide_confnum>  (1) 
2

>  <i_i_glide_lignum>  (1) 
3

>  <i_i_glide_posenum>  (1) 
362

>  <i_i_glide_rotatable_bonds>  (1) 
4

>  <i_lp_mmshare_version>  (1) 
72125

>  <i_m_source_file_index>  (1) 
2

>  <i_f3d_flags>  (1) 
0

>  <num_sample>  (1) 
100

>  <b_lp_Chiralities_Consistent>  (1) 
1

>  <r_epik_Charging_Adjusted_Penalty>  (1) 
1.9889919217114435e-05

>  <r_epik_Ionization_Penalty>  (1) 
1.9962460467374035e-05

>  <r_epik_Ionization_Penalty_Charging>  (1) 
1.9889919217114435e-05

>  <r_epik_Ionization_Penalty_Neutral>  (1) 
7.2541250259600902e-08

>  <r_epik_State_Penalty>  (1) 
-0

>  <r_glide_ring_energy>  (1) 
0

>  <r_i_docking_score>  (1) 
-4.2724216584438022

>  <r_i_glide_ecoul>  (1) 
-4.0793302685076842

>  <r_i_glide_eff_state_penalty>  (1) 
-0

>  <r_i_glide_einternal>  (1) 
7.396020434705167

>  <r_i_glide_emodel>  (1) 
-26.827493256970506

>  <r_i_glide_emodel_strain>  (1) 
0.17573565696842053

>  <r_i_glide_energy>  (1) 
-25.096238903916017

>  <r_i_glide_erotb>  (1) 
0.45571271474972769

>  <r_i_glide_esite>  (1) 
0

>  <r_i_glide_evdw>  (1) 
-21.016908635408335

>  <r_i_glide_gscore>  (1) 
-4.2724216584438022

>  <r_i_glide_gscore_strain>  (1) 
0

>  <r_i_glide_hbond>  (1) 
-0.16

>  <r_i_glide_ligand_efficiency>  (1) 
-0.25131892108492954

>  <r_i_glide_ligand_efficiency_ln>  (1) 
-1.1145796685354399

>  <r_i_glide_ligand_efficiency_sa>  (1) 
-0.64621171516976927

>  <r_i_glide_lipo>  (1) 
-0.99308221482912351

>  <r_i_glide_metal>  (1) 
-0

>  <r_i_glide_rewards>  (1) 
-1.9123071863178367

>  <r_lp_Energy>  (1) 
23.177799999999998

>  <r_lp_tautomer_probability>  (1) 
1

>  <s_epik_cmdline>  (1) 
J2VwaWtfcHl0aG9uJywgJy1waHQnLCAnMS4wJywgJy1waCcsICc3LjQnLCAnLXRuJywgJzgnLCAnLW1hJywgJzUwMCcsICctaW1hZScsICc8aW5maWxlLm1hZT4nLCAnLW9tYWUnLCAnPG91dGZpbGUubWFlPic=

>  <s_epik_input>  (1) 
W09IXVAoW09IXSlbQ0gyXVtDSDJdW0NAQF0xMltDSDJdW0NIMl1bQ0BIXShDbClbQ0BASF0oW0NIMl0xKU9bQ0gyXVtDSDJdW0NAQEhdMltPSF0=

>  <s_glide_docking_method>  (1) 
confgen

>  <s_i_glide_gridfile>  (1) 
gpcr_drd2_6luq_protein_autoprepared_prepared

>  <s_lp_Force_Field>  (1) 
S-OPLS

>  <s_lp_Variant>  (1) 
DiffSBDD_1_num_sample_100-1

>  <s_m_source_file>  (1) 
generated__ligand_DiffSBDD_2026-05-06_prepared.sdf

>  <GenAI_Model>  (1) 
DiffSBDD

>  <Protein>  (1) 
generic_title2

$$$$
DiffSBDD_45_num_sample_100
     RDKit          3D

  0  0  0  0  0  0  0  0  0  0999 V3000
M  V30 BEGIN CTAB
M  V30 COUNTS 63 65 0 0 1
M  V30 BEGIN ATOM
M  V30 1 C 9.527895 4.154902 -18.743855 0
M  V30 2 C 9.348644 5.027830 -9.285000 0
M  V30 3 C 9.187780 5.613972 -19.091305 0
M  V30 4 C 10.652581 8.587146 -8.636772 0 CFG=2
M  V30 5 C 10.624768 7.147022 -9.175790 0 CFG=1
M  V30 6 C 11.434846 7.790352 -6.400648 0
M  V30 7 C 7.434827 2.576008 -14.822899 0
M  V30 8 C 7.686762 4.042052 -16.970738 0 CFG=2
M  V30 9 O 7.937428 1.650934 -15.462547 0
M  V30 10 N 9.591021 6.279858 -8.558856 0
M  V30 11 Cl 10.260678 7.332427 -10.920843 0
M  V30 12 C 7.169424 4.776010 -12.532512 0 CFG=1
M  V30 13 C 4.875323 3.799490 -13.149595 0
M  V30 14 C 7.837948 6.027664 -18.538503 0
M  V30 15 C 8.393904 4.519277 -11.628794 0
M  V30 16 N 11.464606 8.816405 -7.436872 0
M  V30 17 C 7.502558 5.627794 -13.768142 0
M  V30 18 C 8.142345 5.096335 -10.225539 0
M  V30 19 C 7.171393 5.333468 -17.600373 0
M  V30 20 C 9.885508 5.973227 -7.161930 0
M  V30 21 C 6.329995 3.498171 -12.764578 0 CFG=1
M  V30 22 C 7.324766 3.980031 -15.459175 0 CFG=2
M  V30 23 F 9.403564 8.969297 -8.404442 0
M  V30 24 O 8.169418 4.890670 -14.770343 0
M  V30 25 C 9.194584 3.831887 -17.279621 0
M  V30 26 C 10.058246 7.151576 -6.201487 0
M  V30 27 N 6.951472 2.406643 -13.560751 0
M  V30 28 C 7.011147 1.084603 -12.923108 0
M  V30 29 H 10.582158 3.961423 -18.944216 0
M  V30 30 H 8.963872 3.485092 -19.394227 0
M  V30 31 H 9.169785 4.206511 -8.590324 0
M  V30 32 H 10.234835 4.730928 -9.832899 0
M  V30 33 H 9.193883 5.750034 -20.172769 0
M  V30 34 H 9.941795 6.286226 -18.680519 0
M  V30 35 H 11.010796 9.260633 -9.415910 0
M  V30 36 H 11.608266 6.687346 -9.109137 0
M  V30 37 H 11.778605 8.222644 -5.460718 0
M  V30 38 H 12.148649 7.008139 -6.661979 0
M  V30 39 H 7.130935 3.250687 -17.476111 0
M  V30 40 H 6.505000 5.433025 -11.967896 0
M  V30 41 H 4.331687 4.169304 -12.288840 0
M  V30 42 H 4.783024 4.583692 -13.891666 0
M  V30 43 H 4.351323 2.910129 -13.491669 0
M  V30 44 H 7.410406 6.937478 -18.934534 0
M  V30 45 H 8.634692 3.457444 -11.566733 0
M  V30 46 H 9.280459 4.980726 -12.063015 0
M  V30 47 H 12.426321 8.992335 -7.707957 0
M  V30 48 H 8.148404 6.456417 -13.475164 0
M  V30 49 H 6.606397 6.098272 -14.176008 0
M  V30 50 H 7.837016 6.137389 -10.332598 0
M  V30 51 H 7.291086 4.599109 -9.758927 0
M  V30 52 H 6.211895 5.690979 -17.255915 0
M  V30 53 H 9.068949 5.369310 -6.769816 0
M  V30 54 H 10.787350 5.369133 -7.111879 0
M  V30 55 H 6.228075 3.091011 -11.758501 0
M  V30 56 H 6.282713 4.282719 -15.403204 0
M  V30 57 H 9.803271 4.467715 -16.635452 0
M  V30 58 H 9.497466 2.808056 -17.064731 0
M  V30 59 H 9.235538 7.865113 -6.262626 0
M  V30 60 H 10.021630 6.750291 -5.188688 0
M  V30 61 H 8.021551 0.894376 -12.560556 0
M  V30 62 H 6.320665 0.979519 -12.085874 0
M  V30 63 H 6.753933 0.290935 -13.627224 0
M  V30 END ATOM
M  V30 BEGIN BOND
M  V30 1 1 3 1
M  V30 2 1 5 4
M  V30 3 2 9 7
M  V30 4 1 10 2
M  V30 5 1 10 5
M  V30 6 1 11 5
M  V30 7 1 14 3
M  V30 8 1 15 12
M  V30 9 1 16 4
M  V30 10 1 16 6
M  V30 11 1 17 12
M  V30 12 1 18 2
M  V30 13 1 18 15
M  V30 14 1 19 8
M  V30 15 2 19 14
M  V30 16 1 20 10
M  V30 17 1 21 12
M  V30 18 1 21 13
M  V30 19 1 22 7
M  V30 20 1 22 8
M  V30 21 1 23 4
M  V30 22 1 24 17
M  V30 23 1 24 22
M  V30 24 1 25 1
M  V30 25 1 25 8
M  V30 26 1 26 6
M  V30 27 1 26 20
M  V30 28 1 27 7
M  V30 29 1 27 21
M  V30 30 1 28 27
M  V30 31 1 29 1
M  V30 32 1 30 1
M  V30 33 1 31 2
M  V30 34 1 32 2
M  V30 35 1 33 3
M  V30 36 1 34 3
M  V30 37 1 4 35 CFG=3
M  V30 38 1 5 36 CFG=3
M  V30 39 1 37 6
M  V30 40 1 38 6
M  V30 41 1 8 39 CFG=3
M  V30 42 1 12 40 CFG=1
M  V30 43 1 41 13
M  V30 44 1 42 13
M  V30 45 1 43 13
M  V30 46 1 44 14
M  V30 47 1 45 15
M  V30 48 1 46 15
M  V30 49 1 47 16
M  V30 50 1 48 17
M  V30 51 1 49 17
M  V30 52 1 50 18
M  V30 53 1 51 18
M  V30 54 1 52 19
M  V30 55 1 53 20
M  V30 56 1 54 20
M  V30 57 1 21 55 CFG=1
M  V30 58 1 22 56 CFG=3
M  V30 59 1 57 25
M  V30 60 1 58 25
M  V30 61 1 59 26
M  V30 62 1 60 26
M  V30 63 1 61 28
M  V30 64 1 62 28
M  V30 65 1 63 28
M  V30 END BOND
M  V30 END CTAB
M  END
>  <i_epik_Tot_Q>  (1) 
0

>  <i_epik_Tot_abs_Q>  (1) 
0

>  <i_i_glide_confnum>  (1) 
156

>  <i_i_glide_lignum>  (1) 
85

>  <i_i_glide_posenum>  (1) 
394

>  <i_i_glide_rotatable_bonds>  (1) 
5

>  <i_lp_mmshare_version>  (1) 
72125

>  <i_m_source_file_index>  (1) 
46

>  <i_f3d_flags>  (1) 
0

>  <num_sample>  (1) 
100

>  <b_lp_Chiralities_Consistent>  (1) 
1

>  <r_epik_Charging_Adjusted_Penalty>  (1) 
0.015133208647659156

>  <r_epik_Ionization_Penalty>  (1) 
0.015206278080010002

>  <r_epik_Ionization_Penalty_Charging>  (1) 
0

>  <r_epik_Ionization_Penalty_Neutral>  (1) 
0.015206278080010002

>  <r_epik_State_Penalty>  (1) 
0.015133208647659156

>  <r_glide_ring_energy>  (1) 
0.62881631163644225

>  <r_i_docking_score>  (1) 
-4.2664223875733756

>  <r_i_glide_ecoul>  (1) 
1.3930798214702236

>  <r_i_glide_eff_state_penalty>  (1) 
0.015133208647659156

>  <r_i_glide_einternal>  (1) 
13.149521876685203

>  <r_i_glide_emodel>  (1) 
-22.470358094658856

>  <r_i_glide_emodel_strain>  (1) 
3.5565886109442459

>  <r_i_glide_energy>  (1) 
-28.053623541921393

>  <r_i_glide_erotb>  (1) 
0.45657733151366331

>  <r_i_glide_esite>  (1) 
-0.087275919547292635

>  <r_i_glide_evdw>  (1) 
-29.446703363391617

>  <r_i_glide_gscore>  (1) 
-4.2815555962210343

>  <r_i_glide_gscore_strain>  (1) 
0

>  <r_i_glide_hbond>  (1) 
0

>  <r_i_glide_ligand_efficiency>  (1) 
-0.15237222812762055

>  <r_i_glide_ligand_efficiency_ln>  (1) 
-0.98481555465645176

>  <r_i_glide_ligand_efficiency_sa>  (1) 
-0.4626918275524553

>  <r_i_glide_lipo>  (1) 
-1.8004576388773983

>  <r_i_glide_metal>  (1) 
-0

>  <r_i_glide_rewards>  (1) 
-1.5870261743609591

>  <r_lp_Energy>  (1) 
32.929097999999996

>  <s_epik_cmdline>  (1) 
J2VwaWtfcHl0aG9uJywgJy1waHQnLCAnMS4wJywgJy1waCcsICc3LjQnLCAnLXRuJywgJzgnLCAnLW1hJywgJzUwMCcsICctaW1hZScsICc8aW5maWxlLm1hZT4nLCAnLW9tYWUnLCAnPG91dGZpbGUubWFlPic=

>  <s_epik_input>  (1) 
W0NIMl0xW0NIMl1bQ0gyXVtDSF09W0NIXVtDQEhdMVtDQEBIXShDMj1PKU9bQ0gyXVtDQEBIXShbQ0BASF0oW0NIM10pTjJbQ0gzXSlbQ0gyXVtDSDJdW0NIMl1OKFtDQEBIXShDbClbQ0BASF0zRilbQ0gyXVtDSDJdW0NIMl1bTkhdMw==

>  <s_glide_docking_method>  (1) 
confgen

>  <s_i_glide_gridfile>  (1) 
gpcr_drd2_6luq_protein_autoprepared_prepared

>  <s_lp_Force_Field>  (1) 
S-OPLS

>  <s_lp_Variant>  (1) 
DiffSBDD_45_num_sample_100-4

>  <s_m_source_file>  (1) 
generated__ligand_DiffSBDD_2026-05-06_prepared.sdf

>  <GenAI_Model>  (1) 
DiffSBDD

>  <Protein>  (1) 
generic_title2

$$$$
DiffSBDD_29_num_sample_100
     RDKit          3D

  0  0  0  0  0  0  0  0  0  0999 V3000
M  V30 BEGIN CTAB
M  V30 COUNTS 73 77 0 0 1
M  V30 BEGIN ATOM
M  V30 1 F 8.683956 0.617386 -23.859806 0
M  V30 2 O 7.034839 4.364808 -16.275025 0
M  V30 3 N 8.064383 1.289664 -13.185411 0
M  V30 4 C 7.862142 6.618152 -13.234748 0
M  V30 5 N 6.726971 2.745490 -23.187121 0
M  V30 6 C 6.225942 4.953794 -22.177581 0
M  V30 7 C 8.006909 2.121306 -16.062803 0 CFG=1
M  V30 8 C 5.351702 4.915031 -19.887779 0
M  V30 9 C 6.284372 3.553356 -22.136254 0
M  V30 10 C 7.215929 0.279601 -13.616842 0
M  V30 11 C 6.194765 4.666937 -13.497236 0
M  V30 12 N 6.986444 0.180782 -17.233831 0
M  V30 13 C 9.619681 6.576430 -11.432468 0 CFG=2
M  V30 14 O 10.372829 7.369296 -10.536408 0
M  V30 15 O 6.113658 -1.838397 -18.612575 0
M  V30 16 C 8.634847 3.541779 -12.291666 0
M  V30 17 C 7.904922 4.672830 -11.554420 0 CFG=2
M  V30 18 C 6.751318 1.304217 -22.694303 0 CFG=2
M  V30 19 C 5.862274 0.442588 -20.448530 0
M  V30 20 C 8.630555 2.392595 -17.455792 0
M  V30 21 C 6.638452 0.151439 -14.835955 0
M  V30 22 C 7.682764 3.490527 -15.370458 0 CFG=2
M  V30 23 N 5.304645 0.569358 -19.171901 0
M  V30 24 C 5.434843 3.500726 -19.889342 0
M  V30 25 C 6.128212 1.473354 -21.286159 0
M  V30 26 C 7.047029 5.526654 -12.524873 0 CFG=1
M  V30 27 C 5.751242 5.646286 -21.038887 0
M  V30 28 C 8.643100 7.462730 -12.211613 0
M  V30 29 F 8.979663 1.484106 -21.890590 0
M  V30 30 C 7.582623 2.647343 -12.968886 0 CFG=1
M  V30 31 C 8.839332 5.509864 -10.653290 0
M  V30 32 C 6.839553 1.065691 -16.065686 0 CFG=1
M  V30 33 C 6.838687 3.368281 -14.081318 0 CFG=1
M  V30 34 C 8.174257 0.724759 -22.635038 0
M  V30 35 C 5.916153 2.859215 -21.049338 0
M  V30 36 O 4.514228 -0.630687 -17.010344 0
M  V30 37 S 5.634564 -0.610251 -17.961035 0
M  V30 38 H 6.960712 5.213274 -15.865724 0
M  V30 39 H 8.551325 6.167693 -13.948846 0
M  V30 40 H 7.198319 7.266205 -13.807872 0
M  V30 41 H 7.460330 3.072179 -23.799519 0
M  V30 42 H 6.532739 5.492814 -23.061826 0
M  V30 43 H 8.822152 1.652552 -15.521329 0
M  V30 44 H 4.991699 5.435716 -19.013035 0
M  V30 45 H 7.034842 -0.463969 -12.853606 0
M  V30 46 H 5.332812 4.336529 -12.914978 0
M  V30 47 H 5.755929 5.289022 -14.276552 0
M  V30 48 H 7.836658 -0.381501 -17.235898 0
M  V30 49 H 10.314379 6.097881 -12.124488 0
M  V30 50 H 10.732017 8.102526 -11.009558 0
M  V30 51 H 9.362526 3.927622 -13.005097 0
M  V30 52 H 9.206812 2.969296 -11.562553 0
M  V30 53 H 7.209564 4.187126 -10.867423 0
M  V30 54 H 6.097974 0.687106 -23.312781 0
M  V30 55 H 6.070584 -0.580731 -20.723235 0
M  V30 56 H 7.879229 2.712941 -18.178401 0
M  V30 57 H 9.126939 1.510304 -17.860058 0
M  V30 58 H 9.388432 3.174335 -17.398796 0
M  V30 59 H 8.627884 3.979561 -15.136021 0
M  V30 60 H 5.213734 1.516420 -18.816296 0
M  V30 61 H 5.144679 2.946159 -19.018081 0
M  V30 62 H 6.335031 6.070359 -11.900416 0
M  V30 63 H 5.693748 6.724972 -21.044250 0
M  V30 64 H 7.946452 7.944192 -11.522577 0
M  V30 65 H 9.187154 8.271247 -12.691669 0
M  V30 66 H 6.793112 2.475719 -12.241301 0
M  V30 67 H 9.522122 4.860180 -10.104737 0
M  V30 68 H 8.234841 6.007588 -9.893762 0
M  V30 69 H 5.906751 1.598984 -16.234145 0
M  V30 70 H 5.972097 2.753701 -14.291668 0
M  V30 71 H 8.177747 -0.274936 -22.200314 0
M  V30 72 H 5.995667 -0.701347 -14.997909 0
M  V30 73 H 8.684935 1.013152 -12.430618 0
M  V30 END ATOM
M  V30 BEGIN BOND
M  V30 1 1 9 5
M  V30 2 2 9 6
M  V30 3 1 10 3
M  V30 4 1 14 13
M  V30 5 1 17 16
M  V30 6 1 18 5
M  V30 7 1 20 7
M  V30 8 2 21 10
M  V30 9 1 22 2
M  V30 10 1 22 7
M  V30 11 1 23 19
M  V30 12 1 24 8
M  V30 13 1 25 18
M  V30 14 2 25 19
M  V30 15 1 26 4
M  V30 16 1 26 11
M  V30 17 1 26 17
M  V30 18 1 27 6
M  V30 19 2 27 8
M  V30 20 1 28 4
M  V30 21 1 28 13
M  V30 22 1 30 3
M  V30 23 1 30 16
M  V30 24 1 31 13
M  V30 25 1 31 17
M  V30 26 1 32 7
M  V30 27 1 32 12
M  V30 28 1 32 21
M  V30 29 1 33 11
M  V30 30 1 33 22
M  V30 31 1 33 30
M  V30 32 1 34 1
M  V30 33 1 34 18
M  V30 34 1 34 29
M  V30 35 1 35 9
M  V30 36 2 35 24
M  V30 37 1 35 25
M  V30 38 1 37 12
M  V30 39 2 37 15
M  V30 40 1 37 23
M  V30 41 2 37 36
M  V30 42 1 38 2
M  V30 43 1 39 4
M  V30 44 1 40 4
M  V30 45 1 41 5
M  V30 46 1 42 6
M  V30 47 1 7 43 CFG=1
M  V30 48 1 44 8
M  V30 49 1 45 10
M  V30 50 1 46 11
M  V30 51 1 47 11
M  V30 52 1 48 12
M  V30 53 1 13 49 CFG=3
M  V30 54 1 50 14
M  V30 55 1 51 16
M  V30 56 1 52 16
M  V30 57 1 17 53 CFG=1
M  V30 58 1 18 54 CFG=3
M  V30 59 1 55 19
M  V30 60 1 56 20
M  V30 61 1 57 20
M  V30 62 1 58 20
M  V30 63 1 22 59 CFG=1
M  V30 64 1 60 23
M  V30 65 1 61 24
M  V30 66 1 26 62 CFG=1
M  V30 67 1 63 27
M  V30 68 1 64 28
M  V30 69 1 65 28
M  V30 70 1 30 66 CFG=1
M  V30 71 1 67 31
M  V30 72 1 68 31
M  V30 73 1 32 69 CFG=3
M  V30 74 1 33 70 CFG=3
M  V30 75 1 71 34
M  V30 76 1 72 21
M  V30 77 1 73 3
M  V30 END BOND
M  V30 END CTAB
M  END
>  <i_epik_Tot_Q>  (1) 
0

>  <i_epik_Tot_abs_Q>  (1) 
0

>  <i_i_glide_confnum>  (1) 
9

>  <i_i_glide_lignum>  (1) 
54

>  <i_i_glide_posenum>  (1) 
358

>  <i_i_glide_rotatable_bonds>  (1) 
7

>  <i_lp_mmshare_version>  (1) 
72125

>  <i_m_source_file_index>  (1) 
30

>  <i_f3d_flags>  (1) 
0

>  <num_sample>  (1) 
100

>  <b_lp_Chiralities_Consistent>  (1) 
1

>  <r_epik_Charging_Adjusted_Penalty>  (1) 
1.5459132844328078e-07

>  <r_epik_Ionization_Penalty>  (1) 
1.5952634643945804

>  <r_epik_Ionization_Penalty_Charging>  (1) 
1.5459132844328078e-07

>  <r_epik_Ionization_Penalty_Neutral>  (1) 
1.595263309803252

>  <r_epik_State_Penalty>  (1) 
-0

>  <r_glide_ring_energy>  (1) 
0

>  <r_i_docking_score>  (1) 
-4.2615309947323334

>  <r_i_glide_ecoul>  (1) 
-2.3533947612011903

>  <r_i_glide_eff_state_penalty>  (1) 
-0

>  <r_i_glide_einternal>  (1) 
6.5587949830668268

>  <r_i_glide_emodel>  (1) 
-44.671567861890495

>  <r_i_glide_emodel_strain>  (1) 
0.23717477727689129

>  <r_i_glide_energy>  (1) 
-39.8813551714357

>  <r_i_glide_erotb>  (1) 
0.28486469644810641

>  <r_i_glide_esite>  (1) 
-2.3494928120171472e-05

>  <r_i_glide_evdw>  (1) 
-37.527960410234513

>  <r_i_glide_gscore>  (1) 
-4.2615309947323334

>  <r_i_glide_gscore_strain>  (1) 
0

>  <r_i_glide_hbond>  (1) 
-0.32000000000000001

>  <r_i_glide_ligand_efficiency>  (1) 
-0.11517651337114415

>  <r_i_glide_ligand_efficiency_ln>  (1) 
-0.92422616829638427

>  <r_i_glide_ligand_efficiency_sa>  (1) 
-0.38379369465171892

>  <r_i_glide_lipo>  (1) 
-1.5726766242953027

>  <r_i_glide_metal>  (1) 
-0

>  <r_i_glide_rewards>  (1) 
-0.42428833726511295

>  <r_lp_Energy>  (1) 
50.533285999999997

>  <r_lp_tautomer_probability>  (1) 
1

>  <s_epik_Chemistry_Notes>  (1) 
This compound has an imine and may undergo hydrolysis.

>  <s_epik_cmdline>  (1) 
J2VwaWtfcHl0aG9uJywgJy1waHQnLCAnMS4wJywgJy1waCcsICc3LjQnLCAnLXRuJywgJzgnLCAnLW1hJywgJzUwMCcsICctaW1hZScsICc8aW5maWxlLm1hZT4nLCAnLW9tYWUnLCAnPG91dGZpbGUubWFlPic=

>  <s_epik_input>  (1) 
W2NIXTFbY0hdW2NIXVtjSF1jKGMxMilDKC9bQ0BASF0oW05IXTIpW0NIXShGKUYpPVtDSF1cW05IXVMoPU8pKD1PKVtOSF1bQ0BIXShbQ0BASF0oW0NIM10pW0NASF0zW09IXSlbQ0gyXVxbQ0hdPU5cW0NAQEhdKFtDSDJdNClbQ0BIXTNbQ0gyXVtDQEBIXShbQ0BASF00NSlbQ0gyXVtDSDJdW0NASF0oW09IXSlbQ0gyXTU=

>  <s_glide_docking_method>  (1) 
confgen

>  <s_i_glide_gridfile>  (1) 
gpcr_drd2_6luq_protein_autoprepared_prepared

>  <s_lp_Force_Field>  (1) 
S-OPLS

>  <s_lp_Variant>  (1) 
DiffSBDD_29_num_sample_100-4

>  <s_m_source_file>  (1) 
generated__ligand_DiffSBDD_2026-05-06_prepared.sdf

>  <GenAI_Model>  (1) 
DiffSBDD

>  <Protein>  (1) 
generic_title2

$$$$
DiffSBDD_29_num_sample_100
     RDKit          3D

  0  0  0  0  0  0  0  0  0  0999 V3000
M  V30 BEGIN CTAB
M  V30 COUNTS 73 77 0 0 1
M  V30 BEGIN ATOM
M  V30 1 F 6.246804 3.398495 -21.959356 0
M  V30 2 O 6.235142 3.368004 -11.892363 0
M  V30 3 N 7.442401 7.384363 -11.891754 0
M  V30 4 C 9.411277 5.369123 -7.895920 0
M  V30 5 N 6.560343 -0.017900 -20.571673 0
M  V30 6 C 5.777009 -1.365530 -18.641490 0
M  V30 7 C 6.823379 4.553267 -13.877376 0 CFG=1
M  V30 8 C 5.718669 -0.212767 -16.477616 0
M  V30 9 C 6.244568 -0.174773 -19.218849 0
M  V30 10 C 6.315481 7.578725 -12.708350 0
M  V30 11 C 7.959621 5.113245 -10.051563 0
M  V30 12 N 6.417484 5.739727 -16.015690 0
M  V30 13 C 10.236035 7.726771 -7.639948 0 CFG=1
M  V30 14 O 10.102354 8.881591 -6.846275 0
M  V30 15 O 7.117986 6.282321 -18.445504 0
M  V30 16 C 9.840476 6.924832 -11.500146 0
M  V30 17 C 10.031081 6.751614 -9.980638 0 CFG=2
M  V30 18 C 6.924764 1.442276 -20.810527 0 CFG=2
M  V30 19 C 7.125606 3.279484 -19.018521 0
M  V30 20 C 7.973112 3.626148 -14.311756 0
M  V30 21 C 6.019249 6.979168 -13.898120 0
M  V30 22 C 6.732967 4.608281 -12.318365 0 CFG=2
M  V30 23 N 7.035760 3.799176 -17.723585 0
M  V30 24 C 6.181212 0.970135 -17.106570 0
M  V30 25 C 6.847804 1.994120 -19.359683 0
M  V30 26 C 9.328003 5.476088 -9.426961 0 CFG=1
M  V30 27 C 5.510021 -1.386728 -17.251379 0
M  V30 28 C 9.258983 6.674265 -7.121486 0
M  V30 29 F 5.955332 1.498182 -22.955309 0
M  V30 30 C 8.510096 6.424063 -12.100811 0 CFG=1
M  V30 31 C 9.966888 8.035141 -9.125169 0
M  V30 32 C 6.863634 5.932509 -14.622532 0 CFG=1
M  V30 33 C 8.052169 5.041827 -11.594793 0 CFG=1
M  V30 34 C 5.938288 2.115593 -21.774490 0
M  V30 35 C 6.424846 0.940864 -18.496949 0
M  V30 36 O 8.893743 5.368429 -16.835799 0
M  V30 37 S 7.509238 5.409027 -17.329004 0
M  V30 38 H 6.086959 3.421972 -10.959652 0
M  V30 39 H 8.692514 4.635615 -7.535159 0
M  V30 40 H 10.397425 4.969766 -7.662487 0
M  V30 41 H 6.037381 -0.522131 -21.275206 0
M  V30 42 H 5.630681 -2.250161 -19.243644 0
M  V30 43 H 5.894559 4.074341 -14.194472 0
M  V30 44 H 5.518759 -0.221043 -15.415747 0
M  V30 45 H 5.621860 8.282374 -12.282045 0
M  V30 46 H 7.632835 4.168351 -9.651450 0
M  V30 47 H 7.164347 5.769305 -9.729242 0
M  V30 48 H 5.562831 5.190518 -16.081043 0
M  V30 49 H 11.257591 7.362683 -7.519878 0
M  V30 50 H 9.196583 9.151153 -6.893046 0
M  V30 51 H 10.019306 7.958872 -11.796280 0
M  V30 52 H 10.631325 6.349432 -11.984489 0
M  V30 53 H 11.093817 6.569401 -9.870968 0
M  V30 54 H 7.947950 1.510423 -21.181311 0
M  V30 55 H 7.430204 4.012761 -19.751129 0
M  V30 56 H 8.940291 4.115792 -14.191765 0
M  V30 57 H 7.891990 3.323249 -15.348893 0
M  V30 58 H 7.993062 2.705497 -13.728153 0
M  V30 59 H 5.912779 5.243107 -11.995519 0
M  V30 60 H 6.967283 3.140521 -16.951955 0
M  V30 61 H 6.325795 1.861418 -16.528778 0
M  V30 62 H 9.927789 4.637560 -9.773357 0
M  V30 63 H 5.153356 -2.292220 -16.779627 0
M  V30 64 H 9.434953 6.487372 -6.061589 0
M  V30 65 H 8.234812 7.027284 -7.202753 0
M  V30 66 H 8.795432 6.359858 -13.130726 0
M  V30 67 H 9.033958 8.557359 -9.255243 0
M  V30 68 H 10.720306 8.738651 -9.481220 0
M  V30 69 H 7.854728 6.345476 -14.747988 0
M  V30 70 H 8.826810 4.312911 -11.836423 0
M  V30 71 H 4.919635 2.067745 -21.394019 0
M  V30 72 H 5.093873 7.246105 -14.386848 0
M  V30 73 H 7.407751 7.789992 -10.944778 0
M  V30 END ATOM
M  V30 BEGIN BOND
M  V30 1 1 9 5
M  V30 2 2 9 6
M  V30 3 1 10 3
M  V30 4 1 14 13
M  V30 5 1 17 16
M  V30 6 1 18 5
M  V30 7 1 20 7
M  V30 8 2 21 10
M  V30 9 1 22 2
M  V30 10 1 22 7
M  V30 11 1 23 19
M  V30 12 1 24 8
M  V30 13 1 25 18
M  V30 14 2 25 19
M  V30 15 1 26 4
M  V30 16 1 26 11
M  V30 17 1 26 17
M  V30 18 1 27 6
M  V30 19 2 27 8
M  V30 20 1 28 4
M  V30 21 1 28 13
M  V30 22 1 30 3
M  V30 23 1 30 16
M  V30 24 1 31 13
M  V30 25 1 31 17
M  V30 26 1 32 7
M  V30 27 1 32 12
M  V30 28 1 32 21
M  V30 29 1 33 11
M  V30 30 1 33 22
M  V30 31 1 33 30
M  V30 32 1 34 1
M  V30 33 1 34 18
M  V30 34 1 34 29
M  V30 35 1 35 9
M  V30 36 2 35 24
M  V30 37 1 35 25
M  V30 38 1 37 12
M  V30 39 2 37 15
M  V30 40 1 37 23
M  V30 41 2 37 36
M  V30 42 1 38 2
M  V30 43 1 39 4
M  V30 44 1 40 4
M  V30 45 1 41 5
M  V30 46 1 42 6
M  V30 47 1 7 43 CFG=3
M  V30 48 1 44 8
M  V30 49 1 45 10
M  V30 50 1 46 11
M  V30 51 1 47 11
M  V30 52 1 48 12
M  V30 53 1 13 49 CFG=3
M  V30 54 1 50 14
M  V30 55 1 51 16
M  V30 56 1 52 16
M  V30 57 1 17 53 CFG=3
M  V30 58 1 18 54 CFG=3
M  V30 59 1 55 19
M  V30 60 1 56 20
M  V30 61 1 57 20
M  V30 62 1 58 20
M  V30 63 1 22 59 CFG=3
M  V30 64 1 60 23
M  V30 65 1 61 24
M  V30 66 1 26 62 CFG=3
M  V30 67 1 63 27
M  V30 68 1 64 28
M  V30 69 1 65 28
M  V30 70 1 30 66 CFG=3
M  V30 71 1 67 31
M  V30 72 1 68 31
M  V30 73 1 32 69 CFG=3
M  V30 74 1 33 70 CFG=1
M  V30 75 1 71 34
M  V30 76 1 72 21
M  V30 77 1 73 3
M  V30 END BOND
M  V30 END CTAB
M  END
>  <i_epik_Tot_Q>  (1) 
0

>  <i_epik_Tot_abs_Q>  (1) 
0

>  <i_i_glide_confnum>  (1) 
66

>  <i_i_glide_lignum>  (1) 
52

>  <i_i_glide_posenum>  (1) 
187

>  <i_i_glide_rotatable_bonds>  (1) 
7

>  <i_lp_mmshare_version>  (1) 
72125

>  <i_m_source_file_index>  (1) 
30

>  <i_f3d_flags>  (1) 
0

>  <num_sample>  (1) 
100

>  <b_lp_Chiralities_Consistent>  (1) 
1

>  <r_epik_Charging_Adjusted_Penalty>  (1) 
1.5459132844328078e-07

>  <r_epik_Ionization_Penalty>  (1) 
1.5952634643945804

>  <r_epik_Ionization_Penalty_Charging>  (1) 
1.5459132844328078e-07

>  <r_epik_Ionization_Penalty_Neutral>  (1) 
1.595263309803252

>  <r_epik_State_Penalty>  (1) 
-0

>  <r_glide_ring_energy>  (1) 
0

>  <r_i_docking_score>  (1) 
-4.2534349609416724

>  <r_i_glide_ecoul>  (1) 
-6.0247765782648219

>  <r_i_glide_eff_state_penalty>  (1) 
-0

>  <r_i_glide_einternal>  (1) 
6.1862451286342663

>  <r_i_glide_emodel>  (1) 
-34.340620295021246

>  <r_i_glide_emodel_strain>  (1) 
4.5707501092212084

>  <r_i_glide_energy>  (1) 
-38.913288409844171

>  <r_i_glide_erotb>  (1) 
0.28486469644810641

>  <r_i_glide_esite>  (1) 
-0.12368875296301043

>  <r_i_glide_evdw>  (1) 
-32.888511831579351

>  <r_i_glide_gscore>  (1) 
-4.2534349609416724

>  <r_i_glide_gscore_strain>  (1) 
0.1426875273053021

>  <r_i_glide_hbond>  (1) 
-0.16

>  <r_i_glide_ligand_efficiency>  (1) 
-0.11495770164707222

>  <r_i_glide_ligand_efficiency_ln>  (1) 
-0.92247032836515064

>  <r_i_glide_ligand_efficiency_sa>  (1) 
-0.38306456544337014

>  <r_i_glide_lipo>  (1) 
-1.1838775818821614

>  <r_i_glide_metal>  (1) 
-0

>  <r_i_glide_rewards>  (1) 
-0.66527877153121895

>  <r_lp_Energy>  (1) 
37.495854000000001

>  <r_lp_tautomer_probability>  (1) 
1

>  <s_epik_Chemistry_Notes>  (1) 
This compound has an imine and may undergo hydrolysis.

>  <s_epik_cmdline>  (1) 
J2VwaWtfcHl0aG9uJywgJy1waHQnLCAnMS4wJywgJy1waCcsICc3LjQnLCAnLXRuJywgJzgnLCAnLW1hJywgJzUwMCcsICctaW1hZScsICc8aW5maWxlLm1hZT4nLCAnLW9tYWUnLCAnPG91dGZpbGUubWFlPic=

>  <s_epik_input>  (1) 
W2NIXTFbY0hdW2NIXVtjSF1jKGMxMilDKC9bQ0BASF0oW05IXTIpW0NIXShGKUYpPVtDSF1cW05IXVMoPU8pKD1PKVtOSF1bQ0BIXShbQ0BASF0oW0NIM10pW0NASF0zW09IXSlbQ0gyXVxbQ0hdPU5cW0NAQEhdKFtDSDJdNClbQ0BIXTNbQ0gyXVtDQEBIXShbQ0BASF00NSlbQ0gyXVtDSDJdW0NASF0oW09IXSlbQ0gyXTU=

>  <s_glide_docking_method>  (1) 
confgen

>  <s_i_glide_gridfile>  (1) 
gpcr_drd2_6luq_protein_autoprepared_prepared

>  <s_lp_Force_Field>  (1) 
S-OPLS

>  <s_lp_Variant>  (1) 
DiffSBDD_29_num_sample_100-2

>  <s_m_source_file>  (1) 
generated__ligand_DiffSBDD_2026-05-06_prepared.sdf

>  <GenAI_Model>  (1) 
DiffSBDD

>  <Protein>  (1) 
generic_title2

$$$$
DiffSBDD_69_num_sample_100
     RDKit          3D

  0  0  0  0  0  0  0  0  0  0999 V3000
M  V30 BEGIN CTAB
M  V30 COUNTS 56 58 0 0 1
M  V30 BEGIN ATOM
M  V30 1 C 9.645682 5.263594 -15.607091 0
M  V30 2 C 10.643802 0.369241 -18.016901 0
M  V30 3 C 6.609616 6.565209 -13.365768 0
M  V30 4 C 4.961316 -0.761022 -17.042077 0 CFG=2
M  V30 5 N 7.971019 2.243245 -13.326578 0
M  V30 6 O 8.585549 4.333230 -13.626398 0
M  V30 7 O 4.237422 -0.846568 -19.319513 0
M  V30 8 N 5.970239 0.950510 -14.063931 0
M  V30 9 C 6.208149 0.719463 -12.645131 0 CFG=1
M  V30 10 C 9.279534 2.330520 -18.054390 0
M  V30 11 C 7.553629 6.390409 -14.569224 0
M  V30 12 C 10.489462 1.662953 -18.294330 0
M  V30 13 C 4.870207 -0.230660 -18.469022 0
M  V30 14 C 12.489401 1.106442 -18.799352 0
M  V30 15 O 11.860680 -0.108047 -18.291969 0
M  V30 16 C 8.829246 5.544629 -14.324058 0 CFG=2
M  V30 17 O 11.577470 2.247029 -18.806845 0
M  V30 18 C 8.201483 1.608705 -17.491190 0
M  V30 19 F 5.492466 0.919691 -18.781055 0
M  V30 20 C 8.365730 0.222711 -17.187527 0
M  V30 21 C 9.604676 -0.400072 -17.472031 0
M  V30 22 C 7.211260 7.167800 -12.081465 0 CFG=1
M  V30 23 O 7.146934 3.450698 -15.138707 0
M  V30 24 O 7.830208 6.169269 -11.301755 0
M  V30 25 O 6.234440 -0.630703 -12.291650 0
M  V30 26 C 6.060854 -0.035744 -16.209504 0 CFG=1
M  V30 27 C 7.834913 3.353465 -14.123657 0
M  V30 28 O 5.805029 -0.288261 -14.816313 0
M  V30 29 O 5.234042 -2.042464 -17.092012 0 CHG=-1
M  V30 30 C 8.201309 8.330996 -12.269188 0
M  V30 31 C 7.340431 1.007356 -13.576392 0 CFG=2
M  V30 32 O 7.351044 -0.526312 -16.616843 0
M  V30 33 H 10.003297 6.169316 -16.085090 0
M  V30 34 H 9.056074 4.730737 -16.351071 0
M  V30 35 H 10.524069 4.656893 -15.389980 0
M  V30 36 H 5.795567 7.215091 -13.689469 0
M  V30 37 H 6.129749 5.614729 -13.128141 0
M  V30 38 H 4.022237 -0.424717 -16.601706 0
M  V30 39 H 8.578452 2.330206 -12.524417 0
M  V30 40 H 5.904962 1.436336 -11.886012 0
M  V30 41 H 9.175058 3.378652 -18.289276 0
M  V30 42 H 6.978328 5.962613 -15.390020 0
M  V30 43 H 7.834774 7.379937 -14.914797 0
M  V30 44 H 13.348001 1.342987 -18.168794 0
M  V30 45 H 12.842390 0.925811 -19.815644 0
M  V30 46 H 9.472727 6.101751 -13.644774 0
M  V30 47 H 7.273487 2.112236 -17.296427 0
M  V30 48 H 9.753837 -1.447257 -17.251590 0
M  V30 49 H 6.366475 7.529047 -11.491734 0
M  V30 50 H 7.746737 6.472780 -10.400767 0
M  V30 51 H 5.832675 -1.150040 -12.993930 0
M  V30 52 H 5.903264 1.023805 -16.383564 0
M  V30 53 H 7.834926 9.066615 -12.978999 0
M  V30 54 H 9.170845 7.990023 -12.628193 0
M  V30 55 H 8.371992 8.846087 -11.322724 0
M  V30 56 H 8.001590 0.190200 -13.865602 0
M  V30 END ATOM
M  V30 BEGIN BOND
M  V30 1 1 9 8
M  V30 2 1 11 3
M  V30 3 2 12 2
M  V30 4 1 12 10
M  V30 5 1 13 4
M  V30 6 2 13 7
M  V30 7 1 15 2
M  V30 8 1 15 14
M  V30 9 1 16 1
M  V30 10 1 16 6
M  V30 11 1 16 11
M  V30 12 1 17 12
M  V30 13 1 17 14
M  V30 14 2 18 10
M  V30 15 1 19 13
M  V30 16 1 20 18
M  V30 17 1 21 2
M  V30 18 2 21 20
M  V30 19 1 22 3
M  V30 20 1 24 22
M  V30 21 1 25 9
M  V30 22 1 26 4
M  V30 23 1 27 5
M  V30 24 1 27 6
M  V30 25 2 27 23
M  V30 26 1 28 8
M  V30 27 1 28 26
M  V30 28 1 29 4
M  V30 29 1 30 22
M  V30 30 1 31 5
M  V30 31 1 31 8
M  V30 32 1 31 9
M  V30 33 1 32 20
M  V30 34 1 32 26
M  V30 35 1 33 1
M  V30 36 1 34 1
M  V30 37 1 35 1
M  V30 38 1 36 3
M  V30 39 1 37 3
M  V30 40 1 4 38 CFG=1
M  V30 41 1 39 5
M  V30 42 1 9 40 CFG=1
M  V30 43 1 41 10
M  V30 44 1 42 11
M  V30 45 1 43 11
M  V30 46 1 44 14
M  V30 47 1 45 14
M  V30 48 1 16 46 CFG=1
M  V30 49 1 47 18
M  V30 50 1 48 21
M  V30 51 1 22 49 CFG=1
M  V30 52 1 50 24
M  V30 53 1 51 25
M  V30 54 1 26 52 CFG=1
M  V30 55 1 53 30
M  V30 56 1 54 30
M  V30 57 1 55 30
M  V30 58 1 31 56 CFG=3
M  V30 END BOND
M  V30 END CTAB
M  END
>  <i_epik_Tot_Q>  (1) 
-1

>  <i_epik_Tot_abs_Q>  (1) 
1

>  <i_i_glide_confnum>  (1) 
1643

>  <i_i_glide_lignum>  (1) 
139

>  <i_i_glide_posenum>  (1) 
9

>  <i_i_glide_rotatable_bonds>  (1) 
15

>  <i_lp_mmshare_version>  (1) 
72125

>  <i_m_source_file_index>  (1) 
70

>  <i_f3d_flags>  (1) 
0

>  <num_sample>  (1) 
100

>  <b_lp_Chiralities_Consistent>  (1) 
1

>  <r_epik_Charging_Adjusted_Penalty>  (1) 
0.75931899185534724

>  <r_epik_Ionization_Penalty>  (1) 
0.3796836148010711

>  <r_epik_Ionization_Penalty_Charging>  (1) 
0.37965949592767362

>  <r_epik_Ionization_Penalty_Neutral>  (1) 
2.4118873397482059e-05

>  <r_epik_State_Penalty>  (1) 
0.37965949592767362

>  <r_glide_ring_energy>  (1) 
0

>  <r_i_docking_score>  (1) 
-4.2490882440931168

>  <r_i_glide_ecoul>  (1) 
-4.5988274932121369

>  <r_i_glide_eff_state_penalty>  (1) 
0.37965949592767362

>  <r_i_glide_einternal>  (1) 
11.970256697057046

>  <r_i_glide_emodel>  (1) 
-43.158877890579987

>  <r_i_glide_emodel_strain>  (1) 
0.86873677882442735

>  <r_i_glide_energy>  (1) 
-37.8391019161839

>  <r_i_glide_erotb>  (1) 
1.0486485046790583

>  <r_i_glide_esite>  (1) 
-0.035347669275838413

>  <r_i_glide_evdw>  (1) 
-33.240274422971765

>  <r_i_glide_gscore>  (1) 
-4.6287477400207901

>  <r_i_glide_gscore_strain>  (1) 
0

>  <r_i_glide_hbond>  (1) 
-0.26894556556981303

>  <r_i_glide_ligand_efficiency>  (1) 
-0.1327840076279099

>  <r_i_glide_ligand_efficiency_ln>  (1) 
-0.95148668362345701

>  <r_i_glide_ligand_efficiency_sa>  (1) 
-0.42156294678619527

>  <r_i_glide_lipo>  (1) 
-0.86986034501241105

>  <r_i_glide_metal>  (1) 
-0

>  <r_i_glide_rewards>  (1) 
-2.1514048197113773

>  <r_lp_Energy>  (1) 
45.431683

>  <r_lp_tautomer_probability>  (1) 
1

>  <s_epik_Chemistry_Notes>  (1) 
This compound has an ester and may undergo hydrolysis at high or low pH. This compound contains an acetal/aminal-like group ( X-CH(R)-Y where X, Y are N, S, or O) that may be acid/base labile, releasing an aldehyde. This compound has a N-S or N-O group and may undergo hydrolysis at high or low pH.

>  <s_epik_cmdline>  (1) 
J2VwaWtfcHl0aG9uJywgJy1waHQnLCAnMS4wJywgJy1waCcsICc3LjQnLCAnLXRuJywgJzgnLCAnLW1hJywgJzUwMCcsICctaW1hZScsICc8aW5maWxlLm1hZT4nLCAnLW9tYWUnLCAnPG91dGZpbGUubWFlPic=

>  <s_epik_input>  (1) 
W09IXVtDQEBIXShbQ0gzXSlbQ0gyXVtDSDJdW0NASF0oW0NIM10pT0MoPU8pW05IXVtDQEhdMVtDSF0oW09IXSlbTkBAXTFPW0NASF0oW0NAQEhdKEMoPU8pRilbT0hdKU9jKFtjSF0yKVtjSF1bY0hdYyhjMjMpT1tDSDJdTzM=

>  <s_glide_docking_method>  (1) 
confgen

>  <s_i_glide_gridfile>  (1) 
gpcr_drd2_6luq_protein_autoprepared_prepared

>  <s_lp_Force_Field>  (1) 
S-OPLS

>  <s_lp_Variant>  (1) 
DiffSBDD_69_num_sample_100-1

>  <s_m_source_file>  (1) 
generated__ligand_DiffSBDD_2026-05-06_prepared.sdf

>  <GenAI_Model>  (1) 
DiffSBDD

>  <Protein>  (1) 
generic_title2

$$$$
DiffSBDD_59_num_sample_100
     RDKit          3D

  0  0  0  0  0  0  0  0  0  0999 V3000
M  V30 BEGIN CTAB
M  V30 COUNTS 74 77 0 0 1
M  V30 BEGIN ATOM
M  V30 1 C 7.803956 1.509021 -13.175131 0
M  V30 2 N 9.447393 7.168996 -10.107165 0 CFG=1 CHG=1
M  V30 3 C 10.758823 7.790438 -10.485338 0
M  V30 4 C 8.764928 6.485373 -11.274300 0 CFG=1
M  V30 5 C 7.402908 1.803353 -16.573589 0
M  V30 6 C 6.768341 2.170547 -14.110015 0 CFG=2
M  V30 7 C 14.303723 7.708875 -20.876080 0
M  V30 8 C 11.161112 6.428648 -20.726623 0
M  V30 9 C 8.078035 3.881991 -15.473689 0
M  V30 10 C 12.061141 6.913730 -19.754017 0
M  V30 11 O 5.834839 3.369370 -11.094660 0
M  V30 12 O 13.139390 8.280473 -21.483081 0
M  V30 13 C 12.001872 6.354724 -18.466163 0
M  V30 14 C 8.677630 4.321853 -16.666426 0
M  V30 15 C 11.234298 8.969321 -9.635089 0
M  V30 16 C 7.434883 2.626743 -15.416384 0
M  V30 17 C 10.179963 4.944652 -19.239927 0
M  V30 18 C 8.006659 2.249122 -17.768285 0
M  V30 19 N 10.254725 5.454344 -20.487736 0
M  V30 20 C 9.500081 6.415431 -8.818766 0
M  V30 21 N 7.200046 4.811334 -12.139911 0
M  V30 22 C 6.717408 0.444110 -16.541500 0
M  V30 23 C 8.159211 7.525383 -12.257406 0
M  V30 24 O 9.833240 5.789750 -11.906882 0
M  V30 25 N 9.219077 3.926577 -19.049173 0
M  V30 26 C 6.300783 3.832256 -12.130227 0
M  V30 27 C 8.652470 3.502383 -17.822366 0
M  V30 28 C 11.825448 8.530550 -8.324370 0
M  V30 29 C 11.051942 5.354422 -18.199612 0
M  V30 30 C 5.865551 3.288822 -13.491611 0
M  V30 31 C 9.321019 6.625175 -6.292026 0
M  V30 32 C 13.055868 7.988690 -20.079890 0 CFG=2
M  V30 33 C 9.739858 7.318612 -7.585178 0 CFG=1
M  V30 34 C 7.737439 5.386304 -10.917424 0
M  V30 35 C 11.170705 7.796954 -7.420503 0
M  V30 36 H 8.317196 0.691798 -13.682476 0
M  V30 37 H 8.570735 2.211216 -12.846117 0
M  V30 38 H 7.328260 1.081430 -12.291846 0
M  V30 39 H 11.543780 7.033762 -10.521245 0
M  V30 40 H 10.665083 8.169268 -11.491801 0
M  V30 41 H 6.059826 1.376527 -14.335128 0
M  V30 42 H 15.146312 8.393809 -20.807948 0
M  V30 43 H 14.518837 6.687005 -21.184627 0
M  V30 44 H 11.171836 6.828528 -21.728995 0
M  V30 45 H 8.102719 4.515055 -14.603751 0
M  V30 46 H 12.679422 6.686304 -17.692836 0
M  V30 47 H 9.131152 5.296352 -16.694026 0
M  V30 48 H 12.027132 9.496640 -10.167396 0
M  V30 49 H 10.428070 9.683554 -9.491646 0
M  V30 50 H 7.974845 1.624977 -18.649772 0
M  V30 51 H 8.536043 5.946849 -8.634546 0
M  V30 52 H 10.233965 5.610234 -8.873179 0
M  V30 53 H 7.540829 5.162718 -13.021190 0
M  V30 54 H 6.880077 -0.100616 -17.472152 0
M  V30 55 H 7.105504 -0.175758 -15.732262 0
M  V30 56 H 5.640516 0.554756 -16.411995 0
M  V30 57 H 7.269130 7.989696 -11.832940 0
M  V30 58 H 8.835849 8.335486 -12.518114 0
M  V30 59 H 7.860090 7.074059 -13.203489 0
M  V30 60 H 9.564396 4.895171 -12.063029 0
M  V30 61 H 8.845541 3.504006 -19.885675 0
M  V30 62 H 12.843799 8.834840 -8.127450 0
M  V30 63 H 11.012461 4.900692 -17.224929 0
M  V30 64 H 4.856614 2.903207 -13.377005 0
M  V30 65 H 5.741083 4.124827 -14.181485 0
M  V30 66 H 9.434881 7.315642 -5.461461 0
M  V30 67 H 8.281758 6.293883 -6.317615 0
M  V30 68 H 9.958266 5.769298 -6.089478 0
M  V30 69 H 12.999707 8.863735 -19.436584 0
M  V30 70 H 9.107742 8.203669 -7.681397 0
M  V30 71 H 8.199289 4.579584 -10.343705 0
M  V30 72 H 6.912355 5.769329 -10.315535 0
M  V30 73 H 11.670130 7.519735 -6.503493 0
M  V30 74 H 8.785709 7.908766 -9.891715 0
M  V30 END ATOM
M  V30 BEGIN BOND
M  V30 1 1 3 2
M  V30 2 1 4 2
M  V30 3 1 6 1
M  V30 4 2 10 8
M  V30 5 1 12 7
M  V30 6 1 13 10
M  V30 7 2 14 9
M  V30 8 1 15 3
M  V30 9 2 16 5
M  V30 10 1 16 6
M  V30 11 1 16 9
M  V30 12 1 18 5
M  V30 13 1 19 8
M  V30 14 2 19 17
M  V30 15 1 20 2
M  V30 16 1 22 5
M  V30 17 1 23 4
M  V30 18 1 4 24 CFG=3
M  V30 19 1 25 17
M  V30 20 2 26 11
M  V30 21 1 26 21
M  V30 22 1 27 14
M  V30 23 2 27 18
M  V30 24 1 27 25
M  V30 25 1 28 15
M  V30 26 2 29 13
M  V30 27 1 29 17
M  V30 28 1 30 6
M  V30 29 1 30 26
M  V30 30 1 32 7
M  V30 31 1 32 10
M  V30 32 1 32 12
M  V30 33 1 33 20
M  V30 34 1 33 31
M  V30 35 1 34 4
M  V30 36 1 34 21
M  V30 37 2 35 28
M  V30 38 1 35 33
M  V30 39 1 36 1
M  V30 40 1 37 1
M  V30 41 1 38 1
M  V30 42 1 39 3
M  V30 43 1 40 3
M  V30 44 1 6 41 CFG=3
M  V30 45 1 42 7
M  V30 46 1 43 7
M  V30 47 1 44 8
M  V30 48 1 45 9
M  V30 49 1 46 13
M  V30 50 1 47 14
M  V30 51 1 48 15
M  V30 52 1 49 15
M  V30 53 1 50 18
M  V30 54 1 51 20
M  V30 55 1 52 20
M  V30 56 1 53 21
M  V30 57 1 54 22
M  V30 58 1 55 22
M  V30 59 1 56 22
M  V30 60 1 57 23
M  V30 61 1 58 23
M  V30 62 1 59 23
M  V30 63 1 60 24
M  V30 64 1 61 25
M  V30 65 1 62 28
M  V30 66 1 63 29
M  V30 67 1 64 30
M  V30 68 1 65 30
M  V30 69 1 66 31
M  V30 70 1 67 31
M  V30 71 1 68 31
M  V30 72 1 32 69 CFG=1
M  V30 73 1 33 70 CFG=3
M  V30 74 1 71 34
M  V30 75 1 72 34
M  V30 76 1 73 35
M  V30 77 1 2 74 CFG=1
M  V30 END BOND
M  V30 END CTAB
M  END
>  <i_epik_Tot_Q>  (1) 
1

>  <i_epik_Tot_abs_Q>  (1) 
1

>  <i_i_glide_confnum>  (1) 
138

>  <i_i_glide_lignum>  (1) 
119

>  <i_i_glide_posenum>  (1) 
111

>  <i_i_glide_rotatable_bonds>  (1) 
11

>  <i_lp_mmshare_version>  (1) 
72125

>  <i_m_source_file_index>  (1) 
60

>  <i_f3d_flags>  (1) 
0

>  <num_sample>  (1) 
100

>  <b_lp_Chiralities_Consistent>  (1) 
1

>  <r_epik_Charging_Adjusted_Penalty>  (1) 
1.3886415501160498

>  <r_epik_Ionization_Penalty>  (1) 
0.71269190361940904

>  <r_epik_Ionization_Penalty_Charging>  (1) 
0.69432077505802503

>  <r_epik_Ionization_Penalty_Neutral>  (1) 
0.018371128561383968

>  <r_epik_State_Penalty>  (1) 
0.69432077505802492

>  <r_glide_ring_energy>  (1) 
0

>  <r_i_docking_score>  (1) 
-4.2488613131647446

>  <r_i_glide_ecoul>  (1) 
-6.2399089561474099

>  <r_i_glide_eff_state_penalty>  (1) 
0.69432077505802492

>  <r_i_glide_einternal>  (1) 
23.063274281064626

>  <r_i_glide_emodel>  (1) 
-40.064227880732787

>  <r_i_glide_emodel_strain>  (1) 
0.33060494028467247

>  <r_i_glide_energy>  (1) 
-40.940824409206051

>  <r_i_glide_erotb>  (1) 
0.88120926584797454

>  <r_i_glide_esite>  (1) 
-0.18029131200226153

>  <r_i_glide_evdw>  (1) 
-34.700915453058641

>  <r_i_glide_gscore>  (1) 
-4.9431820882227697

>  <r_i_glide_gscore_strain>  (1) 
0

>  <r_i_glide_hbond>  (1) 
-0.13016585545179546

>  <r_i_glide_ligand_efficiency>  (1) 
-0.12139603751899271

>  <r_i_glide_ligand_efficiency_ln>  (1) 
-0.93271935663584404

>  <r_i_glide_ligand_efficiency_sa>  (1) 
-0.39709448851876711

>  <r_i_glide_lipo>  (1) 
-1.8402093440102585

>  <r_i_glide_metal>  (1) 
-0

>  <r_i_glide_rewards>  (1) 
-1.0026927265313854

>  <r_lp_Energy>  (1) 
34.238330999999995

>  <r_lp_tautomer_probability>  (1) 
0.99999977220005165

>  <s_epik_cmdline>  (1) 
J2VwaWtfcHl0aG9uJywgJy1waHQnLCAnMS4wJywgJy1waCcsICc3LjQnLCAnLXRuJywgJzgnLCAnLW1hJywgJzUwMCcsICctaW1hZScsICc8aW5maWxlLm1hZT4nLCAnLW9tYWUnLCAnPG91dGZpbGUubWFlPic=

>  <s_epik_input>  (1) 
W0NIMl0xW0NAQEhdKFtDSDNdKVtDSF09W0NIXVtDSDJdW0NIMl1OMVtDQEBdKFtDSDNdKShbT0hdKVtDSDJdW05IXUMoPU8pW0NIMl1bQ0BIXShbQ0gzXSljKGMyW0NIM10pW2NIXVtjSF1jKFtjSF0yKVtOSF1jKFtjSF1bY0hdMyluW2NIXWMzW0NASF00W0NIMl1PNA==

>  <s_glide_docking_method>  (1) 
confgen

>  <s_i_glide_gridfile>  (1) 
gpcr_drd2_6luq_protein_autoprepared_prepared

>  <s_lp_Force_Field>  (1) 
S-OPLS

>  <s_lp_Variant>  (1) 
DiffSBDD_59_num_sample_100-3

>  <s_m_source_file>  (1) 
generated__ligand_DiffSBDD_2026-05-06_prepared.sdf

>  <GenAI_Model>  (1) 
DiffSBDD

>  <Protein>  (1) 
generic_title2

$$$$
DiffSBDD_82_num_sample_100
     RDKit          3D

  0  0  0  0  0  0  0  0  0  0999 V3000
M  V30 BEGIN CTAB
M  V30 COUNTS 64 68 0 0 1
M  V30 BEGIN ATOM
M  V30 1 C 9.914104 7.095918 -7.620781 0
M  V30 2 N 5.633536 -0.327961 -17.679910 0
M  V30 3 C 7.147067 4.569305 -10.933725 0
M  V30 4 C 10.642033 7.066430 -10.467949 0
M  V30 5 O 9.715250 6.169300 -13.008727 0
M  V30 6 C 10.649615 8.134854 -8.464476 0
M  V30 7 O 6.175350 0.935447 -19.486211 0
M  V30 8 C 7.598299 3.106432 -13.861938 0 CFG=2
M  V30 9 C 6.884359 0.623664 -13.451560 0
M  V30 10 C 8.001433 2.121317 -18.433342 0
M  V30 11 F 11.075252 8.275782 -5.873164 0
M  V30 12 C 7.108647 0.507918 -16.054118 0 CFG=1
M  V30 13 C 8.186193 1.602531 -15.920769 0 CFG=1
M  V30 14 F 9.486297 0.543550 -17.563347 0
M  V30 15 C 8.919848 1.717476 -17.281022 0
M  V30 16 F 8.499419 5.369307 -7.091623 0
M  V30 17 C 7.346312 4.598159 -13.468715 0 CFG=1
M  V30 18 C 9.434814 6.189168 -10.614277 0
M  V30 19 C 5.891442 5.069252 -13.675982 0
M  V30 20 C 8.713162 5.749961 -9.467299 0
M  V30 21 C 9.008860 5.786448 -11.912105 0
M  V30 22 O 10.118886 7.263413 -6.276942 0
M  V30 23 C 5.614025 -0.179141 -18.945258 0
M  V30 24 C 6.556419 1.631583 -18.351994 0 CFG=2
M  V30 25 C 7.643030 2.958783 -15.404406 0
M  V30 26 C 7.849722 4.989650 -12.067391 0
M  V30 27 C 5.011626 -1.144740 -19.907783 0
M  V30 28 C 6.302123 0.149297 -14.786823 0
M  V30 29 N 6.230034 0.778932 -17.193834 0
M  V30 30 C 8.432643 2.882765 -19.453079 0
M  V30 31 C 9.076449 6.106407 -8.047204 0
M  V30 32 C 6.605475 2.114963 -13.209839 0
M  V30 33 F 9.918704 2.592480 -17.142820 0
M  V30 34 C 7.585763 4.926999 -9.655218 0
M  V30 35 N 10.253037 8.286666 -9.836643 0
M  V30 36 H 6.260760 3.966112 -11.039015 0
M  V30 37 H 11.082660 7.329033 -11.427642 0
M  V30 38 H 11.422914 6.569305 -9.897243 0
M  V30 39 H 10.551504 6.558688 -12.813648 0
M  V30 40 H 10.458946 9.098093 -8.000654 0
M  V30 41 H 11.727322 7.981454 -8.381800 0
M  V30 42 H 8.596068 2.861123 -13.494547 0
M  V30 43 H 6.387603 0.057755 -12.661647 0
M  V30 44 H 7.944356 0.384356 -13.354526 0
M  V30 45 H 7.659414 -0.402490 -16.300366 0
M  V30 46 H 8.930678 1.258530 -15.208624 0
M  V30 47 H 7.907667 5.195795 -14.182905 0
M  V30 48 H 5.808596 6.141396 -13.493615 0
M  V30 49 H 5.190368 4.575728 -13.004368 0
M  V30 50 H 5.550766 4.893170 -14.693356 0
M  V30 51 H 5.920098 2.514984 -18.282213 0
M  V30 52 H 8.288164 3.745019 -15.795322 0
M  V30 53 H 6.660198 3.156593 -15.828473 0
M  V30 54 H 5.252002 -2.172446 -19.633507 0
M  V30 55 H 5.365701 -0.968125 -20.924020 0
M  V30 56 H 3.930251 -1.030805 -19.891698 0
M  V30 57 H 5.280631 0.523524 -14.871166 0
M  V30 58 H 6.194329 -0.935676 -14.755388 0
M  V30 59 H 9.454205 3.229626 -19.496795 0
M  V30 60 H 7.768114 3.165538 -20.256109 0
M  V30 61 H 6.634532 2.250489 -12.142131 0
M  V30 62 H 5.578889 2.345513 -13.491768 0
M  V30 63 H 7.034846 4.583430 -8.798840 0
M  V30 64 H 9.238762 8.362518 -9.866335 0
M  V30 END ATOM
M  V30 BEGIN BOND
M  V30 1 1 6 1
M  V30 2 1 13 12
M  V30 3 1 15 10
M  V30 4 1 15 13
M  V30 5 1 15 14
M  V30 6 1 17 8
M  V30 7 1 18 4
M  V30 8 1 19 17
M  V30 9 2 20 18
M  V30 10 1 21 5
M  V30 11 1 21 18
M  V30 12 1 22 1
M  V30 13 1 22 11
M  V30 14 2 23 2
M  V30 15 1 23 7
M  V30 16 1 24 7
M  V30 17 1 24 10
M  V30 18 1 25 8
M  V30 19 1 25 13
M  V30 20 1 26 3
M  V30 21 1 26 17
M  V30 22 2 26 21
M  V30 23 1 27 23
M  V30 24 1 28 9
M  V30 25 1 28 12
M  V30 26 1 29 2
M  V30 27 1 29 12
M  V30 28 1 29 24
M  V30 29 2 30 10
M  V30 30 2 31 1
M  V30 31 1 31 16
M  V30 32 1 31 20
M  V30 33 1 32 8
M  V30 34 1 32 9
M  V30 35 1 33 15
M  V30 36 2 34 3
M  V30 37 1 34 20
M  V30 38 1 35 4
M  V30 39 1 35 6
M  V30 40 1 36 3
M  V30 41 1 37 4
M  V30 42 1 38 4
M  V30 43 1 39 5
M  V30 44 1 40 6
M  V30 45 1 41 6
M  V30 46 1 8 42 CFG=1
M  V30 47 1 43 9
M  V30 48 1 44 9
M  V30 49 1 12 45 CFG=3
M  V30 50 1 13 46 CFG=1
M  V30 51 1 17 47 CFG=3
M  V30 52 1 48 19
M  V30 53 1 49 19
M  V30 54 1 50 19
M  V30 55 1 24 51 CFG=1
M  V30 56 1 52 25
M  V30 57 1 53 25
M  V30 58 1 54 27
M  V30 59 1 55 27
M  V30 60 1 56 27
M  V30 61 1 57 28
M  V30 62 1 58 28
M  V30 63 1 59 30
M  V30 64 1 60 30
M  V30 65 1 61 32
M  V30 66 1 62 32
M  V30 67 1 63 34
M  V30 68 1 64 35
M  V30 END BOND
M  V30 END CTAB
M  END
>  <i_epik_Tot_Q>  (1) 
0

>  <i_epik_Tot_abs_Q>  (1) 
0

>  <i_i_glide_confnum>  (1) 
6

>  <i_i_glide_lignum>  (1) 
167

>  <i_i_glide_posenum>  (1) 
20

>  <i_i_glide_rotatable_bonds>  (1) 
4

>  <i_lp_mmshare_version>  (1) 
72125

>  <i_m_source_file_index>  (1) 
83

>  <i_f3d_flags>  (1) 
0

>  <num_sample>  (1) 
100

>  <b_lp_Chiralities_Consistent>  (1) 
1

>  <r_epik_Charging_Adjusted_Penalty>  (1) 
0.046558445642634526

>  <r_epik_Ionization_Penalty>  (1) 
0.046507495434493687

>  <r_epik_Ionization_Penalty_Charging>  (1) 
0

>  <r_epik_Ionization_Penalty_Neutral>  (1) 
0.046507495434493687

>  <r_epik_State_Penalty>  (1) 
0.046558445642634526

>  <r_glide_ring_energy>  (1) 
0

>  <r_i_docking_score>  (1) 
-4.2481528894130287

>  <r_i_glide_ecoul>  (1) 
-0.94004036521527978

>  <r_i_glide_eff_state_penalty>  (1) 
0.046558445642634526

>  <r_i_glide_einternal>  (1) 
1.7903744816101277

>  <r_i_glide_emodel>  (1) 
-35.114371559327139

>  <r_i_glide_emodel_strain>  (1) 
1.010810716159682

>  <r_i_glide_energy>  (1) 
-30.049804706286377

>  <r_i_glide_erotb>  (1) 
0.1660487774470758

>  <r_i_glide_esite>  (1) 
-0.057300859237549823

>  <r_i_glide_evdw>  (1) 
-29.109764341071099

>  <r_i_glide_gscore>  (1) 
-4.2947113350556636

>  <r_i_glide_gscore_strain>  (1) 
0

>  <r_i_glide_hbond>  (1) 
-0.018334485234596489

>  <r_i_glide_ligand_efficiency>  (1) 
-0.12137579684037225

>  <r_i_glide_ligand_efficiency_ln>  (1) 
-0.9325638418997243

>  <r_i_glide_ligand_efficiency_sa>  (1) 
-0.39702827991683642

>  <r_i_glide_lipo>  (1) 
-1.3020458773721142

>  <r_i_glide_metal>  (1) 
-0

>  <r_i_glide_rewards>  (1) 
-1.4865846188226317

>  <r_lp_Energy>  (1) 
60.372588

>  <r_lp_tautomer_probability>  (1) 
0.99999999486000002

>  <s_epik_Chemistry_Notes>  (1) 
This compound has an imine and may undergo hydrolysis. This compound contains an acetal/aminal-like group ( X-CH(R)-Y where X, Y are N, S, or O) that may be acid/base labile, releasing an aldehyde.

>  <s_epik_cmdline>  (1) 
J2VwaWtfcHl0aG9uJywgJy1waHQnLCAnMS4wJywgJy1waCcsICc3LjQnLCAnLXRuJywgJzgnLCAnLW1hJywgJzUwMCcsICctaW1hZScsICc8aW5maWxlLm1hZT4nLCAnLW9tYWUnLCAnPG91dGZpbGUubWFlPic=

>  <s_epik_input>  (1) 
W0NIMl0xW05IXVtDSDJdQyhPRik9QyhGKWMoYzEyKVtjSF1bY0hdYyhjMltPSF0pW0NASF0oW0NIM10pW0NAQEhdKFtDSDJdW0NIMl1bQ0gyXTMpW0NIMl1bQ0BASF0oW0NAQEhdMzQpQyhGKShGKUMoPVtDSDJdKVtDQEBIXTVONE49QyhPNSlbQ0gzXQ==

>  <s_glide_docking_method>  (1) 
confgen

>  <s_i_glide_gridfile>  (1) 
gpcr_drd2_6luq_protein_autoprepared_prepared

>  <s_lp_Force_Field>  (1) 
S-OPLS

>  <s_lp_Variant>  (1) 
DiffSBDD_82_num_sample_100-1

>  <s_m_source_file>  (1) 
generated__ligand_DiffSBDD_2026-05-06_prepared.sdf

>  <GenAI_Model>  (1) 
DiffSBDD

>  <Protein>  (1) 
generic_title2

$$$$
DiffSBDD_44_num_sample_100
     RDKit          3D

  0  0  0  0  0  0  0  0  0  0999 V3000
M  V30 BEGIN CTAB
M  V30 COUNTS 56 58 0 0 1
M  V30 BEGIN ATOM
M  V30 1 C 8.231096 -0.230698 -15.362199 0
M  V30 2 C 6.962027 0.536767 -14.938177 0 CFG=1
M  V30 3 C 10.129920 6.318631 -7.091660 0
M  V30 4 C 11.272850 8.806930 -6.413928 0
M  V30 5 C 10.857152 8.566208 -7.738774 0
M  V30 6 C 6.998765 4.450044 -12.038272 0
M  V30 7 C 5.832663 0.289346 -15.934677 0
M  V30 8 N 6.280800 -0.071908 -13.744131 0 CFG=2 CHG=1
M  V30 9 C 7.381590 5.891542 -11.693893 0
M  V30 10 C 9.265878 5.993760 -9.964727 0
M  V30 11 O 9.046204 4.969297 -9.329645 0
M  V30 12 C 11.120538 7.811451 -5.437424 0
M  V30 13 N 11.834841 10.034643 -6.069693 0
M  V30 14 C 4.489023 -0.042604 -15.323047 0
M  V30 15 N 9.834852 7.110297 -9.479549 0
M  V30 16 C 7.223171 4.112351 -13.517444 0
M  V30 17 O 7.747874 2.647629 -15.838333 0
M  V30 18 C 9.397897 7.536531 -11.748561 0
M  V30 19 C 4.818635 0.169296 -13.843705 0
M  V30 20 N 6.950802 2.701516 -13.728270 0
M  V30 21 C 6.854072 0.092101 -12.389235 0
M  V30 22 C 8.895501 6.095459 -11.435436 0 CFG=2
M  V30 23 C 9.963286 8.169292 -10.448654 0
M  V30 24 C 10.275467 7.319996 -8.092764 0
M  V30 25 C 7.251814 2.068369 -14.871831 0
M  V30 26 C 10.556607 6.572296 -5.774829 0
M  V30 27 O 5.999480 0.351131 -17.151589 0
M  V30 28 H 8.909978 0.400179 -15.936385 0
M  V30 29 H 8.768298 -0.630674 -14.503192 0
M  V30 30 H 8.005584 -1.060728 -16.025938 0
M  V30 31 H 9.696733 5.369217 -7.310743 0
M  V30 32 H 10.980231 9.338596 -8.481385 0
M  V30 33 H 7.563442 3.769310 -11.402434 0
M  V30 34 H 5.946585 4.295477 -11.793917 0
M  V30 35 H 6.816795 6.169305 -10.804404 0
M  V30 36 H 7.028512 6.555717 -12.483907 0
M  V30 37 H 11.440267 7.997308 -4.422730 0
M  V30 38 H 12.026623 10.261627 -5.105153 0
M  V30 39 H 11.834566 10.804505 -6.722315 0
M  V30 40 H 3.668422 0.569299 -15.676700 0
M  V30 41 H 4.254780 -1.081691 -15.541327 0
M  V30 42 H 6.572031 4.714327 -14.153160 0
M  V30 43 H 8.253845 4.335121 -13.800721 0
M  V30 44 H 10.176899 7.499132 -12.510404 0
M  V30 45 H 8.602076 8.165900 -12.148297 0
M  V30 46 H 4.582974 1.191117 -13.543699 0
M  V30 47 H 4.251651 -0.486984 -13.183735 0
M  V30 48 H 6.545103 2.183292 -12.966760 0
M  V30 49 H 6.448593 0.969342 -11.891671 0
M  V30 50 H 6.588057 -0.772686 -11.779614 0
M  V30 51 H 7.940850 0.169283 -12.414052 0
M  V30 52 H 9.490096 5.376171 -12.000486 0
M  V30 53 H 9.330006 8.993424 -10.127283 0
M  V30 54 H 10.994689 8.501555 -10.570447 0
M  V30 55 H 10.443892 5.810707 -5.017648 0
M  V30 56 H 6.342126 -1.070507 -13.905629 0
M  V30 END ATOM
M  V30 BEGIN BOND
M  V30 1 1 2 1 CFG=3
M  V30 2 2 5 4
M  V30 3 1 7 2
M  V30 4 1 8 2
M  V30 5 1 9 6
M  V30 6 2 11 10
M  V30 7 1 12 4
M  V30 8 1 13 4
M  V30 9 1 14 7
M  V30 10 1 15 10
M  V30 11 1 16 6
M  V30 12 1 19 8
M  V30 13 1 19 14
M  V30 14 1 20 16
M  V30 15 1 21 8
M  V30 16 1 22 9
M  V30 17 1 22 10
M  V30 18 1 22 18
M  V30 19 1 23 15
M  V30 20 1 23 18
M  V30 21 2 24 3
M  V30 22 1 24 5
M  V30 23 1 24 15
M  V30 24 1 25 2
M  V30 25 2 25 17
M  V30 26 1 25 20
M  V30 27 1 26 3
M  V30 28 2 26 12
M  V30 29 2 27 7
M  V30 30 1 28 1
M  V30 31 1 29 1
M  V30 32 1 30 1
M  V30 33 1 31 3
M  V30 34 1 32 5
M  V30 35 1 33 6
M  V30 36 1 34 6
M  V30 37 1 35 9
M  V30 38 1 36 9
M  V30 39 1 37 12
M  V30 40 1 38 13
M  V30 41 1 39 13
M  V30 42 1 40 14
M  V30 43 1 41 14
M  V30 44 1 42 16
M  V30 45 1 43 16
M  V30 46 1 44 18
M  V30 47 1 45 18
M  V30 48 1 46 19
M  V30 49 1 47 19
M  V30 50 1 48 20
M  V30 51 1 49 21
M  V30 52 1 50 21
M  V30 53 1 51 21
M  V30 54 1 22 52 CFG=3
M  V30 55 1 53 23
M  V30 56 1 54 23
M  V30 57 1 55 26
M  V30 58 1 8 56 CFG=3
M  V30 END BOND
M  V30 END CTAB
M  END
>  <i_epik_Tot_Q>  (1) 
1

>  <i_epik_Tot_abs_Q>  (1) 
1

>  <i_i_glide_confnum>  (1) 
10

>  <i_i_glide_lignum>  (1) 
80

>  <i_i_glide_posenum>  (1) 
327

>  <i_i_glide_rotatable_bonds>  (1) 
7

>  <i_lp_mmshare_version>  (1) 
72125

>  <i_m_source_file_index>  (1) 
45

>  <i_f3d_flags>  (1) 
0

>  <num_sample>  (1) 
100

>  <b_lp_Chiralities_Consistent>  (1) 
1

>  <r_epik_Charging_Adjusted_Penalty>  (1) 
0.87787264938008924

>  <r_epik_Ionization_Penalty>  (1) 
0.44040452980928141

>  <r_epik_Ionization_Penalty_Charging>  (1) 
0.43893632469004462

>  <r_epik_Ionization_Penalty_Neutral>  (1) 
0.0014682051192367804

>  <r_epik_State_Penalty>  (1) 
0.43893632469004457

>  <r_glide_ring_energy>  (1) 
0

>  <r_i_docking_score>  (1) 
-4.2480435103490226

>  <r_i_glide_ecoul>  (1) 
-1.8641091704799875

>  <r_i_glide_eff_state_penalty>  (1) 
0.43893632469004457

>  <r_i_glide_einternal>  (1) 
3.4762061119191081

>  <r_i_glide_emodel>  (1) 
-48.691193494367702

>  <r_i_glide_emodel_strain>  (1) 
2.589763473250386

>  <r_i_glide_energy>  (1) 
-39.872655087489626

>  <r_i_glide_erotb>  (1) 
0.96983297192060391

>  <r_i_glide_esite>  (1) 
-0.22901832080645496

>  <r_i_glide_evdw>  (1) 
-38.008545917009641

>  <r_i_glide_gscore>  (1) 
-4.6869798350390672

>  <r_i_glide_gscore_strain>  (1) 
0

>  <r_i_glide_hbond>  (1) 
-0.099033855127187084

>  <r_i_glide_ligand_efficiency>  (1) 
-0.15733494482774157

>  <r_i_glide_ligand_efficiency_ln>  (1) 
-0.98887449473849309

>  <r_i_glide_ligand_efficiency_sa>  (1) 
-0.47200483448322483

>  <r_i_glide_lipo>  (1) 
-1.5706664703544249

>  <r_i_glide_metal>  (1) 
-0

>  <r_i_glide_rewards>  (1) 
-1.5780504892491234

>  <r_lp_Energy>  (1) 
34.499494999999996

>  <r_lp_tautomer_probability>  (1) 
0.99995000000000001

>  <s_epik_cmdline>  (1) 
J2VwaWtfcHl0aG9uJywgJy1waHQnLCAnMS4wJywgJy1waCcsICc3LjQnLCAnLXRuJywgJzgnLCAnLW1hJywgJzUwMCcsICctaW1hZScsICc8aW5maWxlLm1hZT4nLCAnLW9tYWUnLCAnPG91dGZpbGUubWFlPic=

>  <s_epik_input>  (1) 
W0NIM11OMVtDSDJdW0NIMl1DKD1PKVtDQEBdMShbQ0gzXSlDKD1PKVtOSF1bQ0gyXVtDSDJdW0NIMl1bQ0BASF0yW0NIMl1bQ0gyXU4oQzI9TyljKFtjSF1bY0hdW2NIXTMpW2NIXWMzW05IMl0=

>  <s_glide_docking_method>  (1) 
confgen

>  <s_i_glide_gridfile>  (1) 
gpcr_drd2_6luq_protein_autoprepared_prepared

>  <s_lp_Force_Field>  (1) 
S-OPLS

>  <s_lp_Variant>  (1) 
DiffSBDD_44_num_sample_100-5

>  <s_m_source_file>  (1) 
generated__ligand_DiffSBDD_2026-05-06_prepared.sdf

>  <GenAI_Model>  (1) 
DiffSBDD

>  <Protein>  (1) 
generic_title2

$$$$
DiffSBDD_0_num_sample_100
     RDKit          3D

  0  0  0  0  0  0  0  0  0  0999 V3000
M  V30 BEGIN CTAB
M  V30 COUNTS 105 110 0 0 1
M  V30 BEGIN ATOM
M  V30 1 C 7.139752 -6.091564 -19.450921 0
M  V30 2 C 10.894504 3.429890 -18.117802 0
M  V30 3 O 7.328132 3.245844 -18.407497 0
M  V30 4 C 6.961998 3.626994 -19.716000 0 CFG=1
M  V30 5 S 14.603216 0.949152 -18.178431 0
M  V30 6 C 6.589937 -3.585259 -19.856074 0 CFG=1
M  V30 7 C 6.604261 -2.147169 -22.740198 0
M  V30 8 C 6.919842 0.985369 -21.176137 0 CFG=2
M  V30 9 C 8.450386 5.519856 -14.935769 0
M  V30 10 C 7.589948 -1.435348 -21.798629 0
M  V30 11 C 6.181435 -2.287600 -19.082999 0 CFG=1
M  V30 12 C 5.386813 -2.789485 -22.062285 0
M  V30 13 C 11.981730 0.493407 -18.651674 0 CFG=1
M  V30 14 O 14.836056 2.296957 -18.861000 0
M  V30 15 C 10.129969 0.584829 -19.703063 0 CFG=2
M  V30 16 N 8.483048 6.151072 -12.495451 0 CHG=1
M  V30 17 C 4.821809 -3.765669 -17.510975 0
M  V30 18 O 15.434779 0.969297 -16.691207 0
M  V30 19 O 10.652612 -0.343317 -21.815343 0
M  V30 20 C 11.425912 1.452393 -19.726512 0 CFG=1
M  V30 21 C 6.316555 -0.850440 -19.672274 0
M  V30 22 C 7.592669 4.169303 -11.212839 0
M  V30 23 O 10.163956 -0.619733 -20.469120 0
M  V30 24 O 8.852019 1.232570 -19.636528 0
M  V30 25 S 5.590221 0.447164 -18.779136 0
M  V30 26 C 4.789698 -2.543353 -18.436934 0
M  V30 27 C 11.178823 4.903407 -17.755918 0
M  V30 28 C 10.725331 3.689226 -20.722535 0
M  V30 29 C 9.170249 4.891053 -16.135581 0
M  V30 30 C 10.631210 5.320324 -16.375490 0
M  V30 31 C 5.712625 1.485519 -20.294515 0 CFG=1
M  V30 32 O 5.434822 4.569079 -12.914396 0
M  V30 33 C 7.309900 5.552487 -11.816814 0 CFG=2
M  V30 34 C 11.393630 2.976083 -19.512209 0 CFG=1
M  V30 35 C 9.154845 5.370180 -13.571128 0
M  V30 36 C 8.055700 3.254288 -20.745868 0 CFG=1
M  V30 37 C 6.084011 5.622745 -12.738625 0
M  V30 38 C 5.620793 2.994069 -20.059225 0
M  V30 39 N 5.300096 -4.967793 -18.215980 0 CHG=1
M  V30 40 O 5.834839 6.732208 -13.260891 0 CHG=-1
M  V30 41 N 12.962122 0.881879 -17.643726 0
M  V30 42 C 6.623554 -4.772922 -18.849761 0 CFG=1
M  V30 43 C 9.274468 4.202136 -20.577293 0
M  V30 44 C 6.920306 -0.488417 -20.814567 0
M  V30 45 C 5.723389 -3.934165 -21.099985 0
M  V30 46 C 8.278648 1.717597 -20.854144 0 CFG=2
M  V30 47 C 10.531091 0.170773 -18.279756 0
M  V30 48 H 8.108452 -5.950011 -19.931196 0
M  V30 49 H 6.456636 -6.502034 -20.194904 0
M  V30 50 H 7.270547 -6.849170 -18.677588 0
M  V30 51 H 9.834708 3.208503 -18.055147 0
M  V30 52 H 11.350729 2.836033 -17.331038 0
M  V30 53 H 7.629384 2.346820 -18.444423 0
M  V30 54 H 6.822178 4.708939 -19.705629 0
M  V30 55 H 7.627883 -3.515126 -20.152038 0
M  V30 56 H 7.139315 -2.893847 -23.327725 0
M  V30 57 H 6.230717 -1.417390 -23.460037 0
M  V30 58 H 6.664381 1.120467 -22.228074 0
M  V30 59 H 7.476754 5.035226 -14.899224 0
M  V30 60 H 8.234850 6.569273 -15.128513 0
M  V30 61 H 8.311185 -2.093735 -21.333111 0
M  V30 62 H 8.213532 -0.824206 -22.446846 0
M  V30 63 H 6.884187 -2.221595 -18.250325 0
M  V30 64 H 4.778954 -2.036505 -21.561462 0
M  V30 65 H 4.739384 -3.186948 -22.844795 0
M  V30 66 H 12.418791 -0.365024 -19.159712 0
M  V30 67 H 8.143835 7.019351 -12.888218 0
M  V30 68 H 3.835026 -3.962782 -17.092067 0
M  V30 69 H 5.494924 -3.564904 -16.681082 0
M  V30 70 H 14.797915 0.969157 -15.991849 0
M  V30 71 H 9.844956 -0.151023 -22.266262 0
M  V30 72 H 12.006309 1.268137 -20.629770 0
M  V30 73 H 6.758248 3.859960 -10.580126 0
M  V30 74 H 8.485272 4.185706 -10.587349 0
M  V30 75 H 7.726094 3.402083 -11.976205 0
M  V30 76 H 4.454238 -1.712581 -17.819535 0
M  V30 77 H 4.027316 -2.665571 -19.206159 0
M  V30 78 H 12.255919 5.074498 -17.773347 0
M  V30 79 H 10.773056 5.575132 -18.509237 0
M  V30 80 H 10.820881 3.091022 -21.629059 0
M  V30 81 H 11.332525 4.573443 -20.922530 0
M  V30 82 H 9.123123 3.807883 -16.021225 0
M  V30 83 H 8.587799 5.129529 -17.025851 0
M  V30 84 H 10.722327 6.401979 -16.291672 0
M  V30 85 H 11.264617 4.901453 -15.595301 0
M  V30 86 H 4.805154 1.219162 -20.837815 0
M  V30 87 H 7.077411 6.197880 -10.975269 0
M  V30 88 H 12.439797 3.283638 -19.544634 0
M  V30 89 H 9.277779 4.321570 -13.303182 0
M  V30 90 H 10.165729 5.769257 -13.650922 0
M  V30 91 H 7.642240 3.525892 -21.718772 0
M  V30 92 H 4.891237 3.215460 -19.282354 0
M  V30 93 H 5.243200 3.462788 -20.968661 0
M  V30 94 H 5.358134 -5.717453 -17.541206 0
M  V30 95 H 12.681438 1.728177 -17.169745 0
M  V30 96 H 7.318672 -4.512815 -18.048751 0
M  V30 97 H 9.169159 4.754421 -19.648230 0
M  V30 98 H 9.153497 4.984756 -21.327498 0
M  V30 99 H 6.219468 -4.717528 -21.673462 0
M  V30 100 H 4.775460 -4.365622 -20.779855 0
M  V30 101 H 8.961325 1.540547 -21.682715 0
M  V30 102 H 10.349607 -0.876383 -18.035314 0
M  V30 103 H 10.125317 0.823957 -17.506786 0
M  V30 104 H 9.158484 6.357822 -11.775831 0
M  V30 105 H 4.625297 -5.214622 -18.924989 0
M  V30 END ATOM
M  V30 BEGIN BOND
M  V30 1 1 4 3
M  V30 2 1 10 7
M  V30 3 1 11 6
M  V30 4 1 12 7
M  V30 5 2 14 5
M  V30 6 1 5 18 CFG=1
M  V30 7 1 20 13
M  V30 8 1 20 15
M  V30 9 1 21 11
M  V30 10 1 15 23 CFG=3
M  V30 11 1 23 19
M  V30 12 1 24 15
M  V30 13 1 25 21
M  V30 14 1 26 11
M  V30 15 1 26 17
M  V30 16 1 27 2
M  V30 17 1 29 9
M  V30 18 1 30 27
M  V30 19 1 30 29
M  V30 20 1 31 8
M  V30 21 1 31 25
M  V30 22 1 33 16
M  V30 23 1 33 22
M  V30 24 1 34 2
M  V30 25 1 34 20
M  V30 26 1 34 28
M  V30 27 1 35 9
M  V30 28 1 35 16
M  V30 29 1 36 4
M  V30 30 2 37 32
M  V30 31 1 37 33
M  V30 32 1 38 4
M  V30 33 1 38 31
M  V30 34 1 39 17
M  V30 35 1 40 37
M  V30 36 1 41 5
M  V30 37 1 41 13
M  V30 38 1 42 1
M  V30 39 1 42 6
M  V30 40 1 42 39
M  V30 41 1 43 28
M  V30 42 1 43 36
M  V30 43 1 44 8
M  V30 44 1 44 10
M  V30 45 2 44 21
M  V30 46 1 45 6
M  V30 47 1 45 12
M  V30 48 1 46 8
M  V30 49 1 46 24
M  V30 50 1 46 36
M  V30 51 1 47 13
M  V30 52 1 47 15
M  V30 53 1 48 1
M  V30 54 1 49 1
M  V30 55 1 50 1
M  V30 56 1 51 2
M  V30 57 1 52 2
M  V30 58 1 53 3
M  V30 59 1 4 54 CFG=1
M  V30 60 1 6 55 CFG=3
M  V30 61 1 56 7
M  V30 62 1 57 7
M  V30 63 1 8 58 CFG=3
M  V30 64 1 59 9
M  V30 65 1 60 9
M  V30 66 1 61 10
M  V30 67 1 62 10
M  V30 68 1 11 63 CFG=1
M  V30 69 1 64 12
M  V30 70 1 65 12
M  V30 71 1 13 66 CFG=3
M  V30 72 1 67 16
M  V30 73 1 68 17
M  V30 74 1 69 17
M  V30 75 1 70 18
M  V30 76 1 71 19
M  V30 77 1 20 72 CFG=3
M  V30 78 1 73 22
M  V30 79 1 74 22
M  V30 80 1 75 22
M  V30 81 1 76 26
M  V30 82 1 77 26
M  V30 83 1 78 27
M  V30 84 1 79 27
M  V30 85 1 80 28
M  V30 86 1 81 28
M  V30 87 1 82 29
M  V30 88 1 83 29
M  V30 89 1 84 30
M  V30 90 1 85 30
M  V30 91 1 31 86 CFG=3
M  V30 92 1 33 87 CFG=1
M  V30 93 1 34 88 CFG=1
M  V30 94 1 89 35
M  V30 95 1 90 35
M  V30 96 1 36 91 CFG=3
M  V30 97 1 92 38
M  V30 98 1 93 38
M  V30 99 1 94 39
M  V30 100 1 95 41
M  V30 101 1 42 96 CFG=1
M  V30 102 1 97 43
M  V30 103 1 98 43
M  V30 104 1 99 45
M  V30 105 1 100 45
M  V30 106 1 46 101 CFG=3
M  V30 107 1 102 47
M  V30 108 1 103 47
M  V30 109 1 104 16
M  V30 110 1 105 39
M  V30 END BOND
M  V30 END CTAB
M  END
>  <i_epik_Tot_Q>  (1) 
1

>  <i_epik_Tot_abs_Q>  (1) 
3

>  <i_i_glide_confnum>  (1) 
184

>  <i_i_glide_lignum>  (1) 
1

>  <i_i_glide_posenum>  (1) 
236

>  <i_i_glide_rotatable_bonds>  (1) 
15

>  <i_lp_mmshare_version>  (1) 
72125

>  <i_m_source_file_index>  (1) 
1

>  <i_f3d_flags>  (1) 
0

>  <num_sample>  (1) 
100

>  <b_lp_Chiralities_Consistent>  (1) 
1

>  <r_epik_Charging_Adjusted_Penalty>  (1) 
0.0032360822409407838

>  <r_epik_Ionization_Penalty>  (1) 
0.0033274947784888795

>  <r_epik_Ionization_Penalty_Charging>  (1) 
0.0032360822409407838

>  <r_epik_Ionization_Penalty_Neutral>  (1) 
9.1412537548095675e-05

>  <r_epik_State_Penalty>  (1) 
-0

>  <r_glide_ring_energy>  (1) 
0

>  <r_i_docking_score>  (1) 
-4.2425219466996369

>  <r_i_glide_ecoul>  (1) 
-8.5714879054768698

>  <r_i_glide_eff_state_penalty>  (1) 
-0

>  <r_i_glide_einternal>  (1) 
6.9882829520040808

>  <r_i_glide_emodel>  (1) 
-40.688637341811358

>  <r_i_glide_emodel_strain>  (1) 
1.0732420361331663

>  <r_i_glide_energy>  (1) 
-41.370431354874242

>  <r_i_glide_erotb>  (1) 
0.30458455882301022

>  <r_i_glide_esite>  (1) 
-0.040201159165296291

>  <r_i_glide_evdw>  (1) 
-32.79894344939737

>  <r_i_glide_gscore>  (1) 
-4.2425219466996369

>  <r_i_glide_gscore_strain>  (1) 
0

>  <r_i_glide_hbond>  (1) 
-0.10757940295618866

>  <r_i_glide_ligand_efficiency>  (1) 
-0.090266424397864614

>  <r_i_glide_ligand_efficiency_ln>  (1) 
-0.87472017247553746

>  <r_i_glide_ligand_efficiency_sa>  (1) 
-0.32575582652788165

>  <r_i_glide_lipo>  (1) 
-1.0790001887974463

>  <r_i_glide_metal>  (1) 
-0

>  <r_i_glide_rewards>  (1) 
-0.39465539631231644

>  <r_lp_Energy>  (1) 
58.103532999999999

>  <r_lp_tautomer_probability>  (1) 
1

>  <s_epik_cmdline>  (1) 
J2VwaWtfcHl0aG9uJywgJy1waHQnLCAnMS4wJywgJy1waCcsICc3LjQnLCAnLXRuJywgJzgnLCAnLW1hJywgJzUwMCcsICctaW1hZScsICc8aW5maWxlLm1hZT4nLCAnLW9tYWUnLCAnPG91dGZpbGUubWFlPic=

>  <s_epik_input>  (1) 
W0NIM11bQ0BASF0xW05IXVtDSDJdW0NIMl1bQ0BIXTJbQ0BASF0xW0NIMl1bQ0gyXVtDSDJdW0NIMl1DMz1DMlNbQ0BASF0oW0NIMl1bQ0BIXTRbT0hdKVtDQEhdM1tDQEhdKE81KVtDQEBIXTRbQ0gyXVtDSDJdW0NASF0oW0NASF0oW0NAXTU2T1tPSF0pW0NASF0oW0NIMl02KVtOSF1bU0BAXSg9TylbT0hdKVtDSDJdW0NIMl1bQ0gyXVtDSDJdW0NIMl1bQ0gyXVtOSF1bQ0BIXShbQ0gzXSlDKD1PKVtPSF0=

>  <s_glide_docking_method>  (1) 
confgen

>  <s_i_glide_gridfile>  (1) 
gpcr_drd2_6luq_protein_autoprepared_prepared

>  <s_lp_Force_Field>  (1) 
S-OPLS

>  <s_lp_Variant>  (1) 
DiffSBDD_0_num_sample_100-1

>  <s_m_source_file>  (1) 
generated__ligand_DiffSBDD_2026-05-06_prepared.sdf

>  <GenAI_Model>  (1) 
DiffSBDD

>  <Protein>  (1) 
generic_title2

$$$$
DiffSBDD_26_num_sample_100
     RDKit          3D

  0  0  0  0  0  0  0  0  0  0999 V3000
M  V30 BEGIN CTAB
M  V30 COUNTS 72 77 0 0 1
M  V30 BEGIN ATOM
M  V30 1 C 9.434733 6.834524 -7.380323 0
M  V30 2 C 7.446685 -4.800590 -18.122305 0
M  V30 3 C 6.944769 1.252302 -14.097375 0
M  V30 4 C 6.712032 -2.111011 -19.269509 0
M  V30 5 F 6.974568 1.519452 -19.786140 0
M  V30 6 C 7.962381 4.314916 -11.494249 0 CFG=1
M  V30 7 C 7.266185 3.601135 -14.604763 0
M  V30 8 N 7.312014 -6.501990 -19.634293 0
M  V30 9 C 7.356028 7.475636 -12.648133 0
M  V30 10 C 8.732049 6.951864 -12.234454 0 CFG=1
M  V30 11 C 9.385807 7.784440 -11.093108 0
M  V30 12 C 7.491351 -2.270634 -18.100491 0
M  V30 13 C 7.593242 -5.214454 -19.490671 0
M  V30 14 C 7.915457 0.138698 -18.068784 0
M  V30 15 N 6.822538 -6.229016 -16.156636 0
M  V30 16 C 7.095334 -5.955125 -17.485598 0
M  V30 17 O 7.004167 -6.987008 -18.357379 0
M  V30 18 C 6.459591 0.146117 -13.183445 0
M  V30 19 C 9.556449 5.642299 -9.611210 0 CFG=2
M  V30 20 C 8.047394 -4.426245 -20.691381 0
M  V30 21 N 7.650618 -3.530867 -17.492915 0
M  V30 22 C 8.350711 5.340663 -10.486020 0 CFG=1
M  V30 23 C 9.151052 5.769204 -8.149965 0
M  V30 24 C 6.501059 4.179715 -11.898089 0
M  V30 25 C 6.542704 -0.832093 -19.837296 0
M  V30 26 C 7.835457 3.203113 -15.824479 0
M  V30 27 C 10.190588 8.050611 -7.870062 0
M  V30 28 C 8.824121 5.462142 -11.944069 0 CFG=1
M  V30 29 C 8.568528 1.352652 -17.414810 0
M  V30 30 C 7.143549 0.291843 -19.239046 0
M  V30 31 C 8.084757 -1.142112 -17.502627 0
M  V30 32 C 11.043897 7.724103 -9.100598 0
M  V30 33 O 6.234701 2.921977 -12.503901 0
M  V30 34 C 6.809098 2.603084 -13.716753 0
M  V30 35 C 10.283314 6.920705 -10.171122 0 CFG=2
M  V30 36 C 7.932043 1.825697 -16.110901 0
M  V30 37 N 7.499902 0.857465 -15.266388 0
M  V30 38 H 9.102115 6.852789 -6.352541 0
M  V30 39 H 6.518667 -7.136148 -15.837928 0
M  V30 40 H 6.226646 -2.959255 -19.718271 0
M  V30 41 H 8.496020 3.369307 -11.450172 0
M  V30 42 H 7.181387 4.647511 -14.359736 0
M  V30 43 H 6.607555 7.331676 -11.869908 0
M  V30 44 H 7.002172 7.000248 -13.562376 0
M  V30 45 H 7.434833 8.544622 -12.834453 0
M  V30 46 H 9.378428 7.078514 -13.091581 0
M  V30 47 H 9.986300 8.568849 -11.541242 0
M  V30 48 H 8.635053 8.304659 -10.507141 0
M  V30 49 H 6.783996 -5.505091 -15.452672 0
M  V30 50 H 5.388774 0.248664 -13.005679 0
M  V30 51 H 6.975062 0.193319 -12.224573 0
M  V30 52 H 6.634030 -0.837887 -13.618504 0
M  V30 53 H 10.230740 4.789366 -9.642958 0
M  V30 54 H 8.641872 -3.559365 -20.407128 0
M  V30 55 H 7.207173 -4.094485 -21.300135 0
M  V30 56 H 7.834675 -3.510150 -16.486036 0
M  V30 57 H 7.476899 5.900953 -10.177951 0
M  V30 58 H 8.597316 4.943033 -7.729983 0
M  V30 59 H 5.897431 4.216090 -10.990497 0
M  V30 60 H 6.162702 5.015678 -12.506451 0
M  V30 61 H 5.943818 -0.712737 -20.728503 0
M  V30 62 H 8.198230 3.938889 -16.526659 0
M  V30 63 H 10.824386 8.428502 -7.067444 0
M  V30 64 H 9.465302 8.831219 -8.102206 0
M  V30 65 H 9.817250 5.091461 -12.197071 0
M  V30 66 H 9.611569 1.110171 -17.209386 0
M  V30 67 H 8.594466 2.182130 -18.121777 0
M  V30 68 H 8.670954 -1.258228 -16.601781 0
M  V30 69 H 11.466631 8.635572 -9.525043 0
M  V30 70 H 11.889508 7.125621 -8.769902 0
M  V30 71 H 11.034864 6.569332 -10.871040 0
M  V30 72 H 8.678236 -5.037925 -21.337028 0
M  V30 END ATOM
M  V30 BEGIN BOND
M  V30 1 1 10 9
M  V30 2 1 11 10
M  V30 3 1 12 4
M  V30 4 1 13 2
M  V30 5 2 13 8
M  V30 6 2 16 2
M  V30 7 1 16 15
M  V30 8 1 17 8
M  V30 9 1 17 16
M  V30 10 1 18 3
M  V30 11 1 20 13
M  V30 12 1 21 2
M  V30 13 1 21 12
M  V30 14 1 22 6
M  V30 15 1 22 19
M  V30 16 2 23 1
M  V30 17 1 23 19
M  V30 18 1 24 6
M  V30 19 2 25 4
M  V30 20 2 26 7
M  V30 21 1 27 1
M  V30 22 1 28 6
M  V30 23 1 28 10
M  V30 24 1 28 22
M  V30 25 1 29 14
M  V30 26 1 30 5
M  V30 27 2 30 14
M  V30 28 1 30 25
M  V30 29 2 31 12
M  V30 30 1 31 14
M  V30 31 1 32 27
M  V30 32 1 33 24
M  V30 33 2 34 3
M  V30 34 1 34 7
M  V30 35 1 34 33
M  V30 36 1 35 11
M  V30 37 1 35 19
M  V30 38 1 35 32
M  V30 39 1 36 26
M  V30 40 1 36 29
M  V30 41 1 37 3
M  V30 42 2 37 36
M  V30 43 1 38 1
M  V30 44 1 39 15
M  V30 45 1 40 4
M  V30 46 1 6 41 CFG=1
M  V30 47 1 42 7
M  V30 48 1 43 9
M  V30 49 1 44 9
M  V30 50 1 45 9
M  V30 51 1 10 46 CFG=3
M  V30 52 1 47 11
M  V30 53 1 48 11
M  V30 54 1 49 15
M  V30 55 1 50 18
M  V30 56 1 51 18
M  V30 57 1 52 18
M  V30 58 1 19 53 CFG=1
M  V30 59 1 54 20
M  V30 60 1 55 20
M  V30 61 1 56 21
M  V30 62 1 22 57 CFG=1
M  V30 63 1 58 23
M  V30 64 1 59 24
M  V30 65 1 60 24
M  V30 66 1 61 25
M  V30 67 1 62 26
M  V30 68 1 63 27
M  V30 69 1 64 27
M  V30 70 1 28 65 CFG=1
M  V30 71 1 66 29
M  V30 72 1 67 29
M  V30 73 1 68 31
M  V30 74 1 69 32
M  V30 75 1 70 32
M  V30 76 1 35 71 CFG=3
M  V30 77 1 72 20
M  V30 END BOND
M  V30 END CTAB
M  END
>  <i_epik_Tot_Q>  (1) 
0

>  <i_epik_Tot_abs_Q>  (1) 
0

>  <i_i_glide_confnum>  (1) 
14

>  <i_i_glide_lignum>  (1) 
42

>  <i_i_glide_posenum>  (1) 
312

>  <i_i_glide_rotatable_bonds>  (1) 
7

>  <i_lp_mmshare_version>  (1) 
72125

>  <i_m_source_file_index>  (1) 
27

>  <i_f3d_flags>  (1) 
0

>  <num_sample>  (1) 
100

>  <b_lp_Chiralities_Consistent>  (1) 
1

>  <r_epik_Charging_Adjusted_Penalty>  (1) 
0

>  <r_epik_Ionization_Penalty>  (1) 
0.044548018534552827

>  <r_epik_Ionization_Penalty_Charging>  (1) 
0

>  <r_epik_Ionization_Penalty_Neutral>  (1) 
0.044548018534552827

>  <r_epik_State_Penalty>  (1) 
-0

>  <r_glide_ring_energy>  (1) 
0

>  <r_i_docking_score>  (1) 
-4.2347970737517615

>  <r_i_glide_ecoul>  (1) 
-5.4481078145521229

>  <r_i_glide_eff_state_penalty>  (1) 
-0

>  <r_i_glide_einternal>  (1) 
2.1172847181173129

>  <r_i_glide_emodel>  (1) 
-47.440943624915725

>  <r_i_glide_emodel_strain>  (1) 
0

>  <r_i_glide_energy>  (1) 
-39.666229715834589

>  <r_i_glide_erotb>  (1) 
0.5661782271396133

>  <r_i_glide_esite>  (1) 
-0.12128335583058164

>  <r_i_glide_evdw>  (1) 
-34.218121901282466

>  <r_i_glide_gscore>  (1) 
-4.2347970737517615

>  <r_i_glide_gscore_strain>  (1) 
0

>  <r_i_glide_hbond>  (1) 
-0.32000000000000001

>  <r_i_glide_ligand_efficiency>  (1) 
-0.11445397496626382

>  <r_i_glide_ligand_efficiency_ln>  (1) 
-0.91842820756772736

>  <r_i_glide_ligand_efficiency_sa>  (1) 
-0.38138603639032326

>  <r_i_glide_lipo>  (1) 
-1.1271369844724533

>  <r_i_glide_metal>  (1) 
-0

>  <r_i_glide_rewards>  (1) 
-0.70443269334139791

>  <r_lp_Energy>  (1) 
68.245464999999996

>  <r_lp_tautomer_probability>  (1) 
1

>  <s_epik_cmdline>  (1) 
J2VwaWtfcHl0aG9uJywgJy1waHQnLCAnMS4wJywgJy1waCcsICc3LjQnLCAnLXRuJywgJzgnLCAnLW1hJywgJzUwMCcsICctaW1hZScsICc8aW5maWxlLm1hZT4nLCAnLW9tYWUnLCAnPG91dGZpbGUubWFlPic=

>  <s_epik_input>  (1) 
W0NIXTE9W0NIXVtDSDJdW0NIMl1bQ0BASF0yW0NIMl1bQ0BIXShbQ0gzXSlbQ0hdKFtDQEBIXTNbQ0BIXTEyKVtDQEBIXTNbQ0gyXU9jKGM0W0NIM10pW2NIXVtjSF1jKG40KVtDSDJdYyhbY0hdNSljKEYpW2NIXVtjSF1jNVtOSF1bQ0BIXTZDKD1bQ0gyXSlbTkhdT0MvNj1OXFtIXQ==

>  <s_glide_docking_method>  (1) 
confgen

>  <s_i_glide_gridfile>  (1) 
gpcr_drd2_6luq_protein_autoprepared_prepared

>  <s_lp_Force_Field>  (1) 
S-OPLS

>  <s_lp_Variant>  (1) 
DiffSBDD_26_num_sample_100-2

>  <s_m_source_file>  (1) 
generated__ligand_DiffSBDD_2026-05-06_prepared.sdf

>  <GenAI_Model>  (1) 
DiffSBDD

>  <Protein>  (1) 
generic_title2

$$$$
DiffSBDD_49_num_sample_100
     RDKit          3D

  0  0  0  0  0  0  0  0  0  0999 V3000
M  V30 BEGIN CTAB
M  V30 COUNTS 53 56 0 0 1
M  V30 BEGIN ATOM
M  V30 1 N 8.082418 3.887290 -11.891762 0
M  V30 2 C 6.360736 0.349848 -14.354532 0
M  V30 3 C 7.509625 1.926351 -15.819015 0
M  V30 4 C 9.114830 7.838668 -11.885537 0
M  V30 5 C 10.358135 6.700497 -5.731615 0
M  V30 6 S 6.104949 5.252690 -13.074865 0
M  V30 7 C 6.297786 1.329751 -13.346119 0
M  V30 8 C 10.125970 6.131970 -8.226015 0 CFG=1
M  V30 9 C 6.776988 3.667157 -12.479100 0 CFG=1
M  V30 10 C 7.908118 7.310937 -12.680071 0
M  V30 11 C 9.060343 5.989037 -9.330187 0
M  V30 12 C 8.230641 5.096383 -11.574671 0
M  V30 13 C 11.359931 7.825960 -6.012277 0 CFG=2
M  V30 14 O 11.808416 10.187100 -6.105391 0
M  V30 15 C 9.434814 5.604626 -10.784855 0 CFG=1
M  V30 16 C 10.763888 9.239618 -6.019916 0
M  V30 17 C 6.840397 2.612788 -13.572276 0
M  V30 18 C 11.167465 7.235740 -8.519022 0
M  V30 19 C 6.966377 0.647083 -15.590176 0
M  V30 20 C 7.218472 6.134441 -11.972022 0 CFG=2
M  V30 21 C 9.392498 6.489427 -6.908133 0
M  V30 22 N 10.047113 6.737251 -11.528804 0 CHG=1
M  V30 23 C 12.099867 7.479605 -7.316384 0
M  V30 24 C 7.447358 2.909252 -14.811616 0
M  V30 25 H 10.141432 4.777826 -10.759025 0
M  V30 26 H 5.944982 -0.630858 -14.179406 0
M  V30 27 H 7.975077 2.153443 -16.766706 0
M  V30 28 H 9.657432 8.569510 -12.479262 0
M  V30 29 H 8.778884 8.367913 -10.994500 0
M  V30 30 H 10.902894 5.771974 -5.552276 0
M  V30 31 H 9.834849 6.905295 -4.804072 0
M  V30 32 H 5.835153 1.096683 -12.398326 0
M  V30 33 H 10.634303 5.176048 -8.097779 0
M  V30 34 H 6.100313 3.316142 -11.697986 0
M  V30 35 H 8.234643 6.991769 -13.670096 0
M  V30 36 H 7.193976 8.116924 -12.838095 0
M  V30 37 H 8.282855 5.311917 -8.970191 0
M  V30 38 H 8.634847 6.969311 -9.360124 0
M  V30 39 H 12.042362 7.821104 -5.162034 0
M  V30 40 H 11.435385 11.055173 -6.066837 0
M  V30 41 H 10.234874 9.430694 -5.091704 0
M  V30 42 H 10.055956 9.369162 -6.836670 0
M  V30 43 H 11.774374 6.969516 -9.382655 0
M  V30 44 H 10.662981 8.167332 -8.778325 0
M  V30 45 H 7.014763 -0.106880 -16.362169 0
M  V30 46 H 8.669683 5.717630 -6.658815 0
M  V30 47 H 8.794029 7.390924 -7.046852 0
M  V30 48 H 12.848201 8.234575 -7.560509 0
M  V30 49 H 12.634831 6.562718 -7.091714 0
M  V30 50 H 7.866721 3.888682 -14.987546 0
M  V30 51 H 10.801236 7.114089 -10.973721 0
M  V30 52 H 6.667265 6.458006 -11.091697 0
M  V30 53 H 10.428187 6.360622 -12.386316 0
M  V30 END ATOM
M  V30 BEGIN BOND
M  V30 1 1 7 2
M  V30 2 1 9 1
M  V30 3 1 9 6
M  V30 4 1 10 4
M  V30 5 1 11 8
M  V30 6 2 12 1
M  V30 7 1 13 5
M  V30 8 1 15 11
M  V30 9 1 15 12
M  V30 10 1 16 13
M  V30 11 1 16 14
M  V30 12 2 17 7
M  V30 13 1 17 9
M  V30 14 1 18 8
M  V30 15 2 19 2
M  V30 16 1 19 3
M  V30 17 1 20 6
M  V30 18 1 20 10
M  V30 19 1 20 12
M  V30 20 1 21 5
M  V30 21 1 21 8
M  V30 22 1 22 4
M  V30 23 1 22 15
M  V30 24 1 23 13
M  V30 25 1 23 18
M  V30 26 2 24 3
M  V30 27 1 24 17
M  V30 28 1 15 25 CFG=1
M  V30 29 1 26 2
M  V30 30 1 27 3
M  V30 31 1 28 4
M  V30 32 1 29 4
M  V30 33 1 30 5
M  V30 34 1 31 5
M  V30 35 1 32 7
M  V30 36 1 8 33 CFG=1
M  V30 37 1 9 34 CFG=1
M  V30 38 1 35 10
M  V30 39 1 36 10
M  V30 40 1 37 11
M  V30 41 1 38 11
M  V30 42 1 13 39 CFG=1
M  V30 43 1 40 14
M  V30 44 1 41 16
M  V30 45 1 42 16
M  V30 46 1 43 18
M  V30 47 1 44 18
M  V30 48 1 45 19
M  V30 49 1 46 21
M  V30 50 1 47 21
M  V30 51 1 48 23
M  V30 52 1 49 23
M  V30 53 1 50 24
M  V30 54 1 51 22
M  V30 55 1 20 52 CFG=1
M  V30 56 1 53 22
M  V30 END BOND
M  V30 END CTAB
M  END
>  <i_epik_Tot_Q>  (1) 
1

>  <i_epik_Tot_abs_Q>  (1) 
1

>  <i_i_glide_confnum>  (1) 
56

>  <i_i_glide_lignum>  (1) 
94

>  <i_i_glide_posenum>  (1) 
286

>  <i_i_glide_rotatable_bonds>  (1) 
5

>  <i_lp_mmshare_version>  (1) 
72125

>  <i_m_source_file_index>  (1) 
50

>  <i_f3d_flags>  (1) 
0

>  <num_sample>  (1) 
100

>  <b_lp_Chiralities_Consistent>  (1) 
1

>  <r_epik_Charging_Adjusted_Penalty>  (1) 
1.8117775797116225

>  <r_epik_Ionization_Penalty>  (1) 
0.90588925903239437

>  <r_epik_Ionization_Penalty_Charging>  (1) 
0.90588878985581123

>  <r_epik_Ionization_Penalty_Neutral>  (1) 
4.6917658313918283e-07

>  <r_epik_State_Penalty>  (1) 
0.90588878985581134

>  <r_glide_ring_energy>  (1) 
0.012110018449817897

>  <r_i_docking_score>  (1) 
-4.2328137358356317

>  <r_i_glide_ecoul>  (1) 
-3.4084817598593178

>  <r_i_glide_eff_state_penalty>  (1) 
0.90588878985581134

>  <r_i_glide_einternal>  (1) 
1.8874724430053185

>  <r_i_glide_emodel>  (1) 
-40.086549462885984

>  <r_i_glide_emodel_strain>  (1) 
0.022824321433354555

>  <r_i_glide_energy>  (1) 
-31.307512838185339

>  <r_i_glide_erotb>  (1) 
0.63659216225735071

>  <r_i_glide_esite>  (1) 
-0.014030986556402773

>  <r_i_glide_evdw>  (1) 
-27.899031078326022

>  <r_i_glide_gscore>  (1) 
-5.1387025256914427

>  <r_i_glide_gscore_strain>  (1) 
0

>  <r_i_glide_hbond>  (1) 
0

>  <r_i_glide_ligand_efficiency>  (1) 
-0.17636723899315132

>  <r_i_glide_ligand_efficiency_ln>  (1) 
-1.0131065581515319

>  <r_i_glide_ligand_efficiency_sa>  (1) 
-0.50873114930835295

>  <r_i_glide_lipo>  (1) 
-1.8736072494153486

>  <r_i_glide_metal>  (1) 
-0

>  <r_i_glide_rewards>  (1) 
-1.9814326340818442

>  <r_lp_Energy>  (1) 
30.269361

>  <r_lp_tautomer_probability>  (1) 
0.99998600000000004

>  <s_epik_Chemistry_Notes>  (1) 
This compound has an imine and may undergo hydrolysis. This compound contains an acetal/aminal-like group ( X-CH(R)-Y where X, Y are N, S, or O) that may be acid/base labile, releasing an aldehyde.

>  <s_epik_cmdline>  (1) 
J2VwaWtfcHl0aG9uJywgJy1waHQnLCAnMS4wJywgJy1waCcsICc3LjQnLCAnLXRuJywgJzgnLCAnLW1hJywgJzUwMCcsICctaW1hZScsICc8aW5maWxlLm1hZT4nLCAnLW9tYWUnLCAnPG91dGZpbGUubWFlPic=

>  <s_epik_input>  (1) 
W2NIXTFbY0hdW2NIXVtjSF1bY0hdYzFbQ0BASF0oW05IXTIpU1tDQEBIXShbQ0BIXTIzKVtDSDJdW0NIMl1OPUMzW0NIMl1bQ0BIXTRbQ0gyXVtDSDJdW0NASF0oW0NIMl1bQ0gyXTQpW0NIMl1bT0hd

>  <s_glide_docking_method>  (1) 
confgen

>  <s_i_glide_gridfile>  (1) 
gpcr_drd2_6luq_protein_autoprepared_prepared

>  <s_lp_Force_Field>  (1) 
S-OPLS

>  <s_lp_Variant>  (1) 
DiffSBDD_49_num_sample_100-4

>  <s_m_source_file>  (1) 
generated__ligand_DiffSBDD_2026-05-06_prepared.sdf

>  <GenAI_Model>  (1) 
DiffSBDD

>  <Protein>  (1) 
generic_title2

$$$$
DiffSBDD_61_num_sample_100
     RDKit          3D

  0  0  0  0  0  0  0  0  0  0999 V3000
M  V30 BEGIN CTAB
M  V30 COUNTS 52 54 0 0 1
M  V30 BEGIN ATOM
M  V30 1 N 11.245336 8.582074 -5.971756 0 CFG=2 CHG=1
M  V30 2 C 7.258973 3.194843 -14.317399 0
M  V30 3 C 7.601380 4.502376 -13.560418 0 CFG=1
M  V30 4 O 12.607920 8.437951 -2.552321 0
M  V30 5 C 12.261323 7.099589 -2.777204 0
M  V30 6 O 8.912478 4.931644 -13.900649 0
M  V30 7 C 9.352165 5.863835 -9.661396 0
M  V30 8 O 5.774507 7.267234 -15.489651 0
M  V30 9 C 10.577597 6.639922 -9.141487 0
M  V30 10 C 7.451589 5.736846 -11.379687 0 CFG=1
M  V30 11 C 9.973791 7.892059 -6.273335 0
M  V30 12 C 6.572485 5.607310 -13.911799 0 CFG=2
M  V30 13 C 6.810257 6.336762 -15.247100 0
M  V30 14 C 9.403258 8.332796 -7.613941 0
M  V30 15 C 7.560737 4.342507 -12.020914 0
M  V30 16 C 10.372654 8.123218 -8.779675 0 CFG=1
M  V30 17 O 7.520219 3.160121 -15.541347 0 CHG=-1
M  V30 18 C 12.234826 8.386845 -7.063991 0
M  V30 19 C 8.802126 6.377136 -11.001646 0
M  V30 20 C 11.709386 8.800176 -8.446721 0
M  V30 21 C 12.268991 9.107400 -3.706923 0
M  V30 22 C 11.754333 8.226029 -4.586182 0
M  V30 23 C 11.735374 6.936868 -4.032848 0
M  V30 24 S 6.556023 6.793922 -12.545134 0
M  V30 25 O 6.738094 2.268387 -13.656244 0
M  V30 26 H 12.460011 6.425659 -1.955177 0
M  V30 27 H 9.088736 5.724041 -13.419904 0
M  V30 28 H 8.561905 5.865524 -8.911894 0
M  V30 29 H 9.633814 4.817379 -9.780798 0
M  V30 30 H 5.720305 7.831719 -14.731649 0
M  V30 31 H 10.984534 6.097274 -8.289649 0
M  V30 32 H 11.341795 6.623596 -9.906535 0
M  V30 33 H 6.839732 5.675189 -10.478548 0
M  V30 34 H 10.113427 6.810574 -6.272305 0
M  V30 35 H 9.256251 8.117901 -5.491970 0
M  V30 36 H 5.576748 5.159068 -13.933855 0
M  V30 37 H 6.881011 5.646189 -16.086967 0
M  V30 38 H 7.748528 6.884290 -15.184123 0
M  V30 39 H 9.067687 9.369304 -7.565565 0
M  V30 40 H 8.531082 7.726274 -7.782591 0
M  V30 41 H 8.414335 3.775746 -11.646906 0
M  V30 42 H 6.672063 3.785543 -11.721084 0
M  V30 43 H 9.964648 8.630429 -9.652578 0
M  V30 44 H 12.523032 7.334778 -7.097032 0
M  V30 45 H 13.129461 8.970874 -6.840605 0
M  V30 46 H 9.550715 6.250255 -11.782060 0
M  V30 47 H 8.636870 7.449981 -10.929004 0
M  V30 48 H 12.456299 8.574757 -9.210581 0
M  V30 49 H 11.586756 9.875160 -8.488607 0
M  V30 50 H 12.459209 10.169298 -3.713667 0
M  V30 51 H 11.383763 6.013730 -4.472490 0
M  V30 52 H 11.021535 9.566462 -5.980498 0
M  V30 END ATOM
M  V30 BEGIN BOND
M  V30 1 1 3 2
M  V30 2 1 5 4
M  V30 3 1 3 6 CFG=3
M  V30 4 1 9 7
M  V30 5 1 11 1
M  V30 6 1 12 3
M  V30 7 1 13 8
M  V30 8 1 13 12
M  V30 9 1 14 11
M  V30 10 1 15 3
M  V30 11 1 15 10
M  V30 12 1 16 9
M  V30 13 1 16 14
M  V30 14 1 17 2
M  V30 15 1 18 1
M  V30 16 1 19 7
M  V30 17 1 19 10
M  V30 18 1 20 16
M  V30 19 1 20 18
M  V30 20 1 21 4
M  V30 21 1 22 1
M  V30 22 2 22 21
M  V30 23 2 23 5
M  V30 24 1 23 22
M  V30 25 1 24 10
M  V30 26 1 24 12
M  V30 27 2 25 2
M  V30 28 1 26 5
M  V30 29 1 27 6
M  V30 30 1 28 7
M  V30 31 1 29 7
M  V30 32 1 30 8
M  V30 33 1 31 9
M  V30 34 1 32 9
M  V30 35 1 10 33 CFG=1
M  V30 36 1 34 11
M  V30 37 1 35 11
M  V30 38 1 12 36 CFG=3
M  V30 39 1 37 13
M  V30 40 1 38 13
M  V30 41 1 39 14
M  V30 42 1 40 14
M  V30 43 1 41 15
M  V30 44 1 42 15
M  V30 45 1 16 43 CFG=3
M  V30 46 1 44 18
M  V30 47 1 45 18
M  V30 48 1 46 19
M  V30 49 1 47 19
M  V30 50 1 48 20
M  V30 51 1 49 20
M  V30 52 1 50 21
M  V30 53 1 51 23
M  V30 54 1 1 52 CFG=1
M  V30 END BOND
M  V30 END CTAB
M  END
>  <i_epik_Tot_Q>  (1) 
0

>  <i_epik_Tot_abs_Q>  (1) 
2

>  <i_i_glide_confnum>  (1) 
290

>  <i_i_glide_lignum>  (1) 
122

>  <i_i_glide_posenum>  (1) 
208

>  <i_i_glide_rotatable_bonds>  (1) 
9

>  <i_lp_mmshare_version>  (1) 
72125

>  <i_m_source_file_index>  (1) 
62

>  <i_f3d_flags>  (1) 
0

>  <num_sample>  (1) 
100

>  <b_lp_Chiralities_Consistent>  (1) 
1

>  <r_epik_Charging_Adjusted_Penalty>  (1) 
0.30587031255842323

>  <r_epik_Ionization_Penalty>  (1) 
0.15296771237530521

>  <r_epik_Ionization_Penalty_Charging>  (1) 
0.15296734445016963

>  <r_epik_Ionization_Penalty_Neutral>  (1) 
3.6792513557102453e-07

>  <r_epik_State_Penalty>  (1) 
0.15290296810825357

>  <r_glide_ring_energy>  (1) 
0

>  <r_i_docking_score>  (1) 
-4.2222178577300182

>  <r_i_glide_ecoul>  (1) 
1.136636465587582

>  <r_i_glide_eff_state_penalty>  (1) 
0.15290296810825357

>  <r_i_glide_einternal>  (1) 
4.1268919349186497

>  <r_i_glide_emodel>  (1) 
-33.457425141051779

>  <r_i_glide_emodel_strain>  (1) 
0.10911443341181837

>  <r_i_glide_energy>  (1) 
-27.56883018120584

>  <r_i_glide_erotb>  (1) 
0.84742595842419921

>  <r_i_glide_esite>  (1) 
0

>  <r_i_glide_evdw>  (1) 
-28.705466646793422

>  <r_i_glide_gscore>  (1) 
-4.3751208258382714

>  <r_i_glide_gscore_strain>  (1) 
0

>  <r_i_glide_hbond>  (1) 
0

>  <r_i_glide_ligand_efficiency>  (1) 
-0.16888871430920072

>  <r_i_glide_ligand_efficiency_ln>  (1) 
-1.0007921619408937

>  <r_i_glide_ligand_efficiency_sa>  (1) 
-0.49383359642406804

>  <r_i_glide_lipo>  (1) 
-1.9712520316136843

>  <r_i_glide_metal>  (1) 
-0

>  <r_i_glide_rewards>  (1) 
-1.9865168901472521

>  <r_lp_Energy>  (1) 
19.922726999999998

>  <s_epik_cmdline>  (1) 
J2VwaWtfcHl0aG9uJywgJy1waHQnLCAnMS4wJywgJy1waCcsICc3LjQnLCAnLXRuJywgJzgnLCAnLW1hJywgJzUwMCcsICctaW1hZScsICc8aW5maWxlLm1hZT4nLCAnLW9tYWUnLCAnPG91dGZpbGUubWFlPic=

>  <s_epik_input>  (1) 
W2NIXTFbY0hdb1tjSF1jMU4yW0NIMl1bQ0gyXVtDSF0oW0NIMl1bQ0gyXTIpW0NIMl1bQ0gyXVtDSDJdW0NASF0oW0NIMl0zKVNbQ0BASF0oW0NIMl1bT0hdKVtDQF0zKFtPSF0pQyg9TylbT0hd

>  <s_glide_docking_method>  (1) 
confgen

>  <s_i_glide_gridfile>  (1) 
gpcr_drd2_6luq_protein_autoprepared_prepared

>  <s_lp_Force_Field>  (1) 
S-OPLS

>  <s_lp_Variant>  (1) 
DiffSBDD_61_num_sample_100-2

>  <s_m_source_file>  (1) 
generated__ligand_DiffSBDD_2026-05-06_prepared.sdf

>  <GenAI_Model>  (1) 
DiffSBDD

>  <Protein>  (1) 
generic_title2

$$$$
DiffSBDD_29_num_sample_100
     RDKit          3D

  0  0  0  0  0  0  0  0  0  0999 V3000
M  V30 BEGIN CTAB
M  V30 COUNTS 73 77 0 0 1
M  V30 BEGIN ATOM
M  V30 1 F 9.549632 5.510354 -21.428459 0
M  V30 2 O 6.947958 5.109647 -16.287214 0
M  V30 3 N 8.234338 1.581760 -13.782319 0
M  V30 4 C 7.871883 6.822192 -13.123105 0
M  V30 5 N 7.077519 6.521978 -22.605879 0
M  V30 6 C 5.808450 7.955404 -21.030543 0
M  V30 7 C 8.250966 3.077323 -16.425229 0 CFG=1
M  V30 8 C 4.858568 6.823792 -19.070388 0
M  V30 9 C 6.327192 6.720161 -21.443110 0
M  V30 10 C 7.488139 0.658503 -14.517977 0
M  V30 11 C 6.213529 4.880626 -13.473604 0
M  V30 12 N 7.536274 1.399217 -18.087862 0
M  V30 13 C 9.745979 6.613577 -11.442698 0 CFG=2
M  V30 14 O 10.498010 7.369364 -10.514839 0
M  V30 15 O 7.024786 0.303338 -20.383071 0
M  V30 16 C 8.714950 3.661353 -12.497308 0
M  V30 17 C 8.004106 4.725989 -11.633271 0 CFG=2
M  V30 18 C 7.547532 5.071566 -22.623725 0 CFG=2
M  V30 19 C 6.826647 3.219427 -20.991741 0
M  V30 20 C 8.972694 3.708911 -17.647168 0
M  V30 21 C 7.005952 0.780716 -15.786589 0
M  V30 22 C 7.731769 4.217928 -15.514358 0 CFG=2
M  V30 23 N 6.148805 2.699964 -19.881509 0
M  V30 24 C 5.407862 5.598576 -19.523052 0
M  V30 25 C 6.809486 4.520127 -21.372607 0
M  V30 26 C 7.097358 5.666703 -12.469052 0 CFG=1
M  V30 27 C 5.060444 8.009830 -19.830956 0
M  V30 28 C 8.789016 7.573523 -12.149083 0
M  V30 29 F 9.450758 3.667697 -22.581304 0
M  V30 30 C 7.683539 2.854180 -13.311190 0 CFG=1
M  V30 31 C 8.962726 5.510398 -10.708562 0
M  V30 32 C 7.212255 1.958630 -16.763097 0 CFG=1
M  V30 33 C 6.917659 3.751912 -14.289509 0 CFG=1
M  V30 34 C 9.078943 4.946485 -22.542389 0
M  V30 35 C 6.142676 5.598287 -20.729390 0
M  V30 36 O 5.126273 0.635120 -18.688685 0
M  V30 37 S 6.371460 1.084598 -19.322897 0
M  V30 38 H 6.745461 5.861523 -15.752798 0
M  V30 39 H 8.497006 6.440181 -13.919886 0
M  V30 40 H 7.178705 7.525162 -13.588354 0
M  V30 41 H 7.690497 7.250119 -22.943799 0
M  V30 42 H 5.971444 8.846008 -21.618664 0
M  V30 43 H 9.035069 2.571836 -15.892604 0
M  V30 44 H 4.292073 6.857452 -18.151032 0
M  V30 45 H 7.318311 -0.256986 -13.969997 0
M  V30 46 H 5.431188 4.398817 -12.886391 0
M  V30 47 H 5.671910 5.568586 -14.123165 0
M  V30 48 H 8.475288 1.030092 -18.237937 0
M  V30 49 H 10.430707 6.168805 -12.166727 0
M  V30 50 H 9.889671 7.742067 -9.893481 0
M  V30 51 H 9.451201 4.120507 -13.154390 0
M  V30 52 H 9.272070 2.988796 -11.842316 0
M  V30 53 H 7.343090 4.170450 -10.966784 0
M  V30 54 H 7.164150 4.580399 -23.521346 0
M  V30 55 H 7.373639 2.470923 -21.545657 0
M  V30 56 H 8.265584 4.137997 -18.356814 0
M  V30 57 H 9.587371 2.986342 -18.183726 0
M  V30 58 H 9.644320 4.510374 -17.337798 0
M  V30 59 H 8.605356 4.771563 -15.183568 0
M  V30 60 H 5.514782 3.291336 -19.351490 0
M  V30 61 H 5.270301 4.704926 -18.947245 0
M  V30 62 H 6.416043 6.149582 -11.763474 0
M  V30 63 H 4.644735 8.949160 -19.496197 0
M  V30 64 H 8.210920 8.119425 -11.408886 0
M  V30 65 H 9.357723 8.328723 -12.691667 0
M  V30 66 H 6.937005 2.519297 -12.590602 0
M  V30 67 H 9.650740 4.825385 -10.211773 0
M  V30 68 H 8.373760 5.970253 -9.913597 0
M  V30 69 H 6.235505 2.415240 -16.879224 0
M  V30 70 H 6.113763 3.146994 -14.674351 0
M  V30 71 H 9.563070 5.434792 -23.388663 0
M  V30 72 H 6.446542 -0.051387 -16.191819 0
M  V30 73 H 8.808388 1.160487 -13.062261 0
M  V30 END ATOM
M  V30 BEGIN BOND
M  V30 1 1 9 5
M  V30 2 2 9 6
M  V30 3 1 10 3
M  V30 4 1 14 13
M  V30 5 1 17 16
M  V30 6 1 18 5
M  V30 7 1 20 7
M  V30 8 2 21 10
M  V30 9 1 22 2
M  V30 10 1 22 7
M  V30 11 1 23 19
M  V30 12 1 24 8
M  V30 13 1 25 18
M  V30 14 2 25 19
M  V30 15 1 26 4
M  V30 16 1 26 11
M  V30 17 1 26 17
M  V30 18 1 27 6
M  V30 19 2 27 8
M  V30 20 1 28 4
M  V30 21 1 28 13
M  V30 22 1 30 3
M  V30 23 1 30 16
M  V30 24 1 31 13
M  V30 25 1 31 17
M  V30 26 1 32 7
M  V30 27 1 32 12
M  V30 28 1 32 21
M  V30 29 1 33 11
M  V30 30 1 33 22
M  V30 31 1 33 30
M  V30 32 1 34 1
M  V30 33 1 34 18
M  V30 34 1 34 29
M  V30 35 1 35 9
M  V30 36 2 35 24
M  V30 37 1 35 25
M  V30 38 1 37 12
M  V30 39 2 37 15
M  V30 40 1 37 23
M  V30 41 2 37 36
M  V30 42 1 38 2
M  V30 43 1 39 4
M  V30 44 1 40 4
M  V30 45 1 41 5
M  V30 46 1 42 6
M  V30 47 1 7 43 CFG=1
M  V30 48 1 44 8
M  V30 49 1 45 10
M  V30 50 1 46 11
M  V30 51 1 47 11
M  V30 52 1 48 12
M  V30 53 1 13 49 CFG=3
M  V30 54 1 50 14
M  V30 55 1 51 16
M  V30 56 1 52 16
M  V30 57 1 17 53 CFG=1
M  V30 58 1 18 54 CFG=3
M  V30 59 1 55 19
M  V30 60 1 56 20
M  V30 61 1 57 20
M  V30 62 1 58 20
M  V30 63 1 22 59 CFG=1
M  V30 64 1 60 23
M  V30 65 1 61 24
M  V30 66 1 26 62 CFG=1
M  V30 67 1 63 27
M  V30 68 1 64 28
M  V30 69 1 65 28
M  V30 70 1 30 66 CFG=1
M  V30 71 1 67 31
M  V30 72 1 68 31
M  V30 73 1 32 69 CFG=3
M  V30 74 1 33 70 CFG=3
M  V30 75 1 71 34
M  V30 76 1 72 21
M  V30 77 1 73 3
M  V30 END BOND
M  V30 END CTAB
M  END
>  <i_epik_Tot_Q>  (1) 
0

>  <i_epik_Tot_abs_Q>  (1) 
0

>  <i_i_glide_confnum>  (1) 
9

>  <i_i_glide_lignum>  (1) 
54

>  <i_i_glide_posenum>  (1) 
358

>  <i_i_glide_rotatable_bonds>  (1) 
7

>  <i_lp_mmshare_version>  (1) 
72125

>  <i_m_source_file_index>  (1) 
30

>  <i_f3d_flags>  (1) 
0

>  <num_sample>  (1) 
100

>  <b_lp_Chiralities_Consistent>  (1) 
1

>  <r_epik_Charging_Adjusted_Penalty>  (1) 
1.5459132844328078e-07

>  <r_epik_Ionization_Penalty>  (1) 
1.5952634643945804

>  <r_epik_Ionization_Penalty_Charging>  (1) 
1.5459132844328078e-07

>  <r_epik_Ionization_Penalty_Neutral>  (1) 
1.595263309803252

>  <r_epik_State_Penalty>  (1) 
-0

>  <r_glide_ring_energy>  (1) 
0

>  <r_i_docking_score>  (1) 
-4.2105231085836117

>  <r_i_glide_ecoul>  (1) 
-2.7438176760311803

>  <r_i_glide_eff_state_penalty>  (1) 
-0

>  <r_i_glide_einternal>  (1) 
5.6848272575077559

>  <r_i_glide_emodel>  (1) 
-41.326316709047489

>  <r_i_glide_emodel_strain>  (1) 
0.90341823365520213

>  <r_i_glide_energy>  (1) 
-36.864790682412917

>  <r_i_glide_erotb>  (1) 
0.28486469644810641

>  <r_i_glide_esite>  (1) 
-0.00037879971977983966

>  <r_i_glide_evdw>  (1) 
-34.120973006381739

>  <r_i_glide_gscore>  (1) 
-4.2105231085836117

>  <r_i_glide_gscore_strain>  (1) 
0

>  <r_i_glide_hbond>  (1) 
0

>  <r_i_glide_ligand_efficiency>  (1) 
-0.11379792185361112

>  <r_i_glide_ligand_efficiency_ln>  (1) 
-0.91316375358523838

>  <r_i_glide_ligand_efficiency_sa>  (1) 
-0.37919992187250162

>  <r_i_glide_lipo>  (1) 
-2.0259830312000755

>  <r_i_glide_metal>  (1) 
-0

>  <r_i_glide_rewards>  (1) 
-0.35140467238809858

>  <r_lp_Energy>  (1) 
50.533285999999997

>  <r_lp_tautomer_probability>  (1) 
1

>  <s_epik_Chemistry_Notes>  (1) 
This compound has an imine and may undergo hydrolysis.

>  <s_epik_cmdline>  (1) 
J2VwaWtfcHl0aG9uJywgJy1waHQnLCAnMS4wJywgJy1waCcsICc3LjQnLCAnLXRuJywgJzgnLCAnLW1hJywgJzUwMCcsICctaW1hZScsICc8aW5maWxlLm1hZT4nLCAnLW9tYWUnLCAnPG91dGZpbGUubWFlPic=

>  <s_epik_input>  (1) 
W2NIXTFbY0hdW2NIXVtjSF1jKGMxMilDKC9bQ0BASF0oW05IXTIpW0NIXShGKUYpPVtDSF1cW05IXVMoPU8pKD1PKVtOSF1bQ0BIXShbQ0BASF0oW0NIM10pW0NASF0zW09IXSlbQ0gyXVxbQ0hdPU5cW0NAQEhdKFtDSDJdNClbQ0BIXTNbQ0gyXVtDQEBIXShbQ0BASF00NSlbQ0gyXVtDSDJdW0NASF0oW09IXSlbQ0gyXTU=

>  <s_glide_docking_method>  (1) 
confgen

>  <s_i_glide_gridfile>  (1) 
gpcr_drd2_6luq_protein_autoprepared_prepared

>  <s_lp_Force_Field>  (1) 
S-OPLS

>  <s_lp_Variant>  (1) 
DiffSBDD_29_num_sample_100-4

>  <s_m_source_file>  (1) 
generated__ligand_DiffSBDD_2026-05-06_prepared.sdf

>  <GenAI_Model>  (1) 
DiffSBDD

>  <Protein>  (1) 
generic_title2

$$$$
DiffSBDD_67_num_sample_100
     RDKit          3D

  0  0  0  0  0  0  0  0  0  0999 V3000
M  V30 BEGIN CTAB
M  V30 COUNTS 79 83 0 0 1
M  V30 BEGIN ATOM
M  V30 1 C 6.977740 5.283752 -14.832644 0 CFG=2
M  V30 2 C 7.872694 4.030357 -12.698252 0 CFG=1
M  V30 3 C 9.035794 3.047341 -12.489094 0
M  V30 4 C 7.544917 4.817967 -11.395455 0 CFG=1
M  V30 5 C 9.206214 4.125351 -18.455441 0
M  V30 6 C 7.163624 3.856215 -16.960720 0
M  V30 7 C 13.848813 6.348170 -18.491617 0
M  V30 8 C 13.445635 5.843983 -16.140270 0
M  V30 9 C 8.454179 7.187686 -11.784293 0 CFG=2
M  V30 10 C 15.402921 3.721570 -18.058527 0
M  V30 11 C 10.728898 4.359659 -18.379929 0
M  V30 12 C 13.705985 7.720849 -18.217625 0
M  V30 13 C 12.950487 3.299608 -18.767265 0
M  V30 14 O 16.235312 4.169318 -17.237223 0 CHG=-1
M  V30 15 F 13.033804 7.622571 -14.612776 0
M  V30 16 C 9.938574 1.315838 -17.682335 0
M  V30 17 O 15.675697 3.124996 -19.122297 0
M  V30 18 C 8.612416 5.862061 -11.015078 0
M  V30 19 C 7.330784 7.149299 -12.857550 0 CFG=2
M  V30 20 C 13.723699 5.405743 -17.447017 0
M  V30 21 C 5.993144 6.697984 -12.249190 0
M  V30 22 N 8.592833 1.894732 -17.662402 0
M  V30 23 C 10.896311 1.891612 -18.739938 0
M  V30 24 N 11.559772 3.129657 -18.250837 0 CFG=2 CHG=1
M  V30 25 C 6.126847 5.431444 -11.384165 0
M  V30 26 C 8.593956 3.321894 -17.275041 0 CFG=1
M  V30 27 C 6.012838 6.149333 -16.984418 0
M  V30 28 C 13.912858 3.920834 -17.721927 0 CFG=2
M  V30 29 O 9.713579 7.560603 -12.291651 0
M  V30 30 C 7.738793 6.337223 -14.072873 0 CFG=1
M  V30 31 C 8.140148 4.878307 -13.947347 0 CFG=2
M  V30 32 O 13.834739 8.634243 -19.220333 0
M  V30 33 C 13.434967 8.150570 -16.905577 0
M  V30 34 C 7.809514 1.042697 -16.764750 0
M  V30 35 C 13.298121 7.209792 -15.871830 0
M  V30 36 C 7.113109 5.280811 -16.355489 0 CFG=1
M  V30 37 H 5.988870 5.007019 -14.472950 0
M  V30 38 H 7.000895 3.411189 -12.912280 0
M  V30 39 H 10.001148 3.544340 -12.594807 0
M  V30 40 H 9.034836 2.582089 -11.507457 0
M  V30 41 H 8.983125 2.238525 -13.215455 0
M  V30 42 H 7.538179 4.096609 -10.581168 0
M  V30 43 H 8.931074 3.672450 -19.409102 0
M  V30 44 H 8.753941 5.113485 -18.521324 0
M  V30 45 H 6.591857 3.821080 -17.890293 0
M  V30 46 H 6.638044 3.216768 -16.253677 0
M  V30 47 H 14.067558 6.018236 -19.496440 0
M  V30 48 H 13.357420 5.133164 -15.340999 0
M  V30 49 H 13.560052 9.498485 -18.942418 0
M  V30 50 H 8.228547 7.990458 -11.091465 0
M  V30 51 H 10.954056 5.020403 -17.542895 0
M  V30 52 H 11.016584 4.904006 -19.279761 0
M  V30 53 H 12.959523 3.847209 -19.709754 0
M  V30 54 H 13.346749 2.315496 -19.014987 0
M  V30 55 H 9.845285 0.250804 -17.900991 0
M  V30 56 H 10.383826 1.381025 -16.692242 0
M  V30 57 H 8.542367 6.076808 -9.947350 0
M  V30 58 H 9.608153 5.438056 -11.150410 0
M  V30 59 H 7.200337 8.168845 -13.215127 0
M  V30 60 H 5.247406 6.554583 -13.029905 0
M  V30 61 H 5.600395 7.509311 -11.636297 0
M  V30 62 H 10.424346 2.031117 -19.713155 0
M  V30 63 H 11.643119 1.113955 -18.896996 0
M  V30 64 H 5.384866 4.687608 -11.678759 0
M  V30 65 H 5.879985 5.697262 -10.354173 0
M  V30 66 H 9.202903 3.446427 -16.379807 0
M  V30 67 H 5.019229 5.770047 -16.745668 0
M  V30 68 H 6.072911 7.174838 -16.615623 0
M  V30 69 H 6.107628 6.188394 -18.070775 0
M  V30 70 H 13.760859 3.383591 -16.784075 0
M  V30 71 H 9.624559 8.404137 -12.706913 0
M  V30 72 H 8.234352 6.969569 -14.784809 0
M  V30 73 H 9.069558 4.630903 -14.455813 0
M  V30 74 H 13.337504 9.202578 -16.689967 0
M  V30 75 H 6.741920 1.233146 -16.863545 0
M  V30 76 H 7.934278 -0.013845 -17.002712 0
M  V30 77 H 8.097049 1.186923 -15.722504 0
M  V30 78 H 8.057132 5.768463 -16.592828 0
M  V30 79 H 11.668324 2.972207 -17.259374 0
M  V30 END ATOM
M  V30 BEGIN BOND
M  V30 1 1 3 2
M  V30 2 1 4 2
M  V30 3 1 11 5
M  V30 4 2 12 7
M  V30 5 1 14 10
M  V30 6 2 17 10
M  V30 7 1 18 4
M  V30 8 1 18 9
M  V30 9 1 19 9
M  V30 10 1 20 7
M  V30 11 2 20 8
M  V30 12 1 21 19
M  V30 13 1 22 16
M  V30 14 1 23 16
M  V30 15 1 24 11
M  V30 16 1 24 13
M  V30 17 1 24 23
M  V30 18 1 25 4
M  V30 19 1 25 21
M  V30 20 1 26 5
M  V30 21 1 26 6
M  V30 22 1 26 22
M  V30 23 1 28 10
M  V30 24 1 28 13
M  V30 25 1 28 20
M  V30 26 1 29 9
M  V30 27 1 30 1
M  V30 28 1 30 19
M  V30 29 1 31 1
M  V30 30 1 31 2
M  V30 31 1 31 30
M  V30 32 1 32 12
M  V30 33 1 33 12
M  V30 34 1 34 22
M  V30 35 1 35 8
M  V30 36 1 35 15
M  V30 37 2 35 33
M  V30 38 1 36 1
M  V30 39 1 36 6
M  V30 40 1 36 27
M  V30 41 1 1 37 CFG=3
M  V30 42 1 2 38 CFG=3
M  V30 43 1 39 3
M  V30 44 1 40 3
M  V30 45 1 41 3
M  V30 46 1 4 42 CFG=1
M  V30 47 1 43 5
M  V30 48 1 44 5
M  V30 49 1 45 6
M  V30 50 1 46 6
M  V30 51 1 47 7
M  V30 52 1 48 8
M  V30 53 1 49 32
M  V30 54 1 9 50 CFG=1
M  V30 55 1 51 11
M  V30 56 1 52 11
M  V30 57 1 53 13
M  V30 58 1 54 13
M  V30 59 1 55 16
M  V30 60 1 56 16
M  V30 61 1 57 18
M  V30 62 1 58 18
M  V30 63 1 19 59 CFG=3
M  V30 64 1 60 21
M  V30 65 1 61 21
M  V30 66 1 62 23
M  V30 67 1 63 23
M  V30 68 1 64 25
M  V30 69 1 65 25
M  V30 70 1 26 66 CFG=1
M  V30 71 1 67 27
M  V30 72 1 68 27
M  V30 73 1 69 27
M  V30 74 1 28 70 CFG=1
M  V30 75 1 71 29
M  V30 76 1 30 72 CFG=3
M  V30 77 1 31 73 CFG=3
M  V30 78 1 74 33
M  V30 79 1 75 34
M  V30 80 1 76 34
M  V30 81 1 77 34
M  V30 82 1 36 78 CFG=1
M  V30 83 1 24 79 CFG=1
M  V30 END BOND
M  V30 END CTAB
M  END
>  <i_epik_Tot_Q>  (1) 
0

>  <i_epik_Tot_abs_Q>  (1) 
2

>  <i_i_glide_confnum>  (1) 
69

>  <i_i_glide_lignum>  (1) 
133

>  <i_i_glide_posenum>  (1) 
303

>  <i_i_glide_rotatable_bonds>  (1) 
9

>  <i_lp_mmshare_version>  (1) 
72125

>  <i_m_source_file_index>  (1) 
68

>  <i_f3d_flags>  (1) 
0

>  <num_sample>  (1) 
100

>  <b_lp_Chiralities_Consistent>  (1) 
1

>  <r_epik_Charging_Adjusted_Penalty>  (1) 
0.12241089881330544

>  <r_epik_Ionization_Penalty>  (1) 
0.01898901772236716

>  <r_epik_Ionization_Penalty_Charging>  (1) 
0.00080544074301080722

>  <r_epik_Ionization_Penalty_Neutral>  (1) 
0.018183576979356353

>  <r_epik_State_Penalty>  (1) 
0.12160545807029463

>  <r_glide_ring_energy>  (1) 
0.59912657946458703

>  <r_i_docking_score>  (1) 
-4.2075948516149779

>  <r_i_glide_ecoul>  (1) 
-8.7813256875935242

>  <r_i_glide_eff_state_penalty>  (1) 
0.12160545807029463

>  <r_i_glide_einternal>  (1) 
10.948835395135852

>  <r_i_glide_emodel>  (1) 
-27.016642956635234

>  <r_i_glide_emodel_strain>  (1) 
1.5492911203299968

>  <r_i_glide_energy>  (1) 
-30.188924647341558

>  <r_i_glide_erotb>  (1) 
0.48522832276191719

>  <r_i_glide_esite>  (1) 
-0.019573599527889632

>  <r_i_glide_evdw>  (1) 
-21.407598959748032

>  <r_i_glide_gscore>  (1) 
-4.3292003096852723

>  <r_i_glide_gscore_strain>  (1) 
0

>  <r_i_glide_hbond>  (1) 
-0.36231285626764942

>  <r_i_glide_ligand_efficiency>  (1) 
-0.11687763476708272

>  <r_i_glide_ligand_efficiency_ln>  (1) 
-0.91798352054638688

>  <r_i_glide_ligand_efficiency_sa>  (1) 
-0.3859214470237845

>  <r_i_glide_lipo>  (1) 
-1.5009950493171489

>  <r_i_glide_metal>  (1) 
-0

>  <r_i_glide_rewards>  (1) 
-0.54396832620807167

>  <r_lp_Energy>  (1) 
56.91601

>  <r_lp_tautomer_probability>  (1) 
0.99999999999736477

>  <s_epik_cmdline>  (1) 
J2VwaWtfcHl0aG9uJywgJy1waHQnLCAnMS4wJywgJy1waCcsICc3LjQnLCAnLXRuJywgJzgnLCAnLW1hJywgJzUwMCcsICctaW1hZScsICc8aW5maWxlLm1hZT4nLCAnLW9tYWUnLCAnPG91dGZpbGUubWFlPic=

>  <s_epik_input>  (1) 
W0NIM11bQ0BASF0oW0NAQEhdMTIpW0NAQEhdM1tDQEhdKFtDQEhdKFtDQEBIXShbQ0gyXTEpW09IXSlbQ0gyXVtDSDJdMilbQ0BIXTNbQ0BIXShbQ0gzXSlbQ0gyXVtDQEBIXTRbQ0gyXVtDSDJdTihbQ0gyXVtDSDJdTjRbQ0gzXSlbQ0gyXVtDQEBIXShDKD1PKVtPSF0pQyg9W0NIXUM1PU8pW0NIMl1DKEYpPVtDSF01

>  <s_glide_docking_method>  (1) 
confgen

>  <s_i_glide_gridfile>  (1) 
gpcr_drd2_6luq_protein_autoprepared_prepared

>  <s_lp_Force_Field>  (1) 
S-OPLS

>  <s_lp_Variant>  (1) 
DiffSBDD_67_num_sample_100-1

>  <s_m_source_file>  (1) 
generated__ligand_DiffSBDD_2026-05-06_prepared.sdf

>  <GenAI_Model>  (1) 
DiffSBDD

>  <Protein>  (1) 
generic_title2

$$$$
DiffSBDD_44_num_sample_100
     RDKit          3D

  0  0  0  0  0  0  0  0  0  0999 V3000
M  V30 BEGIN CTAB
M  V30 COUNTS 55 57 0 0 1
M  V30 BEGIN ATOM
M  V30 1 C 9.063956 8.648035 -6.896801 0
M  V30 2 C 10.427721 7.948901 -7.040646 0 CFG=1
M  V30 3 C 7.863246 3.973048 -16.252553 0
M  V30 4 C 7.663285 1.156571 -16.305369 0
M  V30 5 C 7.428589 1.848500 -15.102711 0
M  V30 6 C 9.048478 7.367229 -11.646927 0
M  V30 7 C 11.368252 8.512267 -5.998927 0
M  V30 8 N 10.332970 6.552357 -6.616159 0
M  V30 9 C 8.436483 5.990038 -11.327627 0
M  V30 10 C 7.458605 5.257792 -13.553734 0
M  V30 11 O 7.834848 6.087970 -14.374752 0
M  V30 12 C 7.992118 1.863518 -17.474201 0
M  V30 13 N 7.569522 -0.230892 -16.337801 0
M  V30 14 C 11.500449 7.675708 -4.756923 0
M  V30 15 N 7.274266 3.949285 -13.789412 0
M  V30 16 C 10.311082 7.674839 -10.836401 0
M  V30 17 O 12.114612 8.191489 -8.758653 0
M  V30 18 C 6.490686 4.338258 -11.625112 0
M  V30 19 C 10.714977 6.411561 -5.193868 0
M  V30 20 N 10.003647 7.738745 -9.434718 0
M  V30 21 C 9.180399 5.767737 -7.090652 0
M  V30 22 C 7.156451 5.655848 -12.122978 0 CFG=1
M  V30 23 C 6.826356 3.203673 -12.636377 0
M  V30 24 C 7.526149 3.264280 -15.059773 0
M  V30 25 C 10.927529 7.978045 -8.496783 0
M  V30 26 C 8.091921 3.266085 -17.448265 0
M  V30 27 O 11.959523 9.583789 -6.140322 0
M  V30 28 H 8.947462 9.492986 -7.562091 0
M  V30 29 H 8.234815 8.005134 -7.100726 0
M  V30 30 H 8.878113 8.968937 -5.891575 0
M  V30 31 H 7.940115 5.039593 -16.268496 0
M  V30 32 H 7.177761 1.291959 -14.211830 0
M  V30 33 H 9.315686 7.417268 -12.694510 0
M  V30 34 H 8.302050 8.147041 -11.486040 0
M  V30 35 H 8.189780 5.942524 -10.268166 0
M  V30 36 H 9.190418 5.217416 -11.488330 0
M  V30 37 H 8.167861 1.327955 -18.395713 0
M  V30 38 H 7.814306 -0.752877 -17.166909 0
M  V30 39 H 7.434835 -0.768894 -15.489837 0
M  V30 40 H 12.521472 7.473869 -4.444253 0
M  V30 41 H 11.035334 8.200895 -3.931449 0
M  V30 42 H 11.095153 6.947127 -11.029703 0
M  V30 43 H 10.710690 8.637350 -11.091701 0
M  V30 44 H 6.785905 4.076610 -10.608647 0
M  V30 45 H 5.409887 4.483426 -11.595896 0
M  V30 46 H 11.330833 5.521224 -5.064574 0
M  V30 47 H 9.835626 6.278576 -4.567212 0
M  V30 48 H 9.042667 7.578952 -9.153058 0
M  V30 49 H 9.434393 4.748784 -7.351867 0
M  V30 50 H 8.381943 5.769788 -6.348129 0
M  V30 51 H 8.736275 6.136218 -8.010556 0
M  V30 52 H 6.449623 6.486532 -12.085947 0
M  V30 53 H 5.952652 2.585281 -12.842471 0
M  V30 54 H 7.646966 2.576054 -12.291566 0
M  V30 55 H 8.343315 3.803402 -18.350537 0
M  V30 END ATOM
M  V30 BEGIN BOND
M  V30 1 1 2 1 CFG=3
M  V30 2 2 5 4
M  V30 3 1 7 2
M  V30 4 1 8 2
M  V30 5 1 9 6
M  V30 6 2 11 10
M  V30 7 1 12 4
M  V30 8 1 13 4
M  V30 9 1 14 7
M  V30 10 1 15 10
M  V30 11 1 16 6
M  V30 12 1 19 8
M  V30 13 1 19 14
M  V30 14 1 20 16
M  V30 15 1 21 8
M  V30 16 1 22 9
M  V30 17 1 22 10
M  V30 18 1 22 18
M  V30 19 1 23 15
M  V30 20 1 23 18
M  V30 21 2 24 3
M  V30 22 1 24 5
M  V30 23 1 24 15
M  V30 24 1 25 2
M  V30 25 2 25 17
M  V30 26 1 25 20
M  V30 27 1 26 3
M  V30 28 2 26 12
M  V30 29 2 27 7
M  V30 30 1 28 1
M  V30 31 1 29 1
M  V30 32 1 30 1
M  V30 33 1 31 3
M  V30 34 1 32 5
M  V30 35 1 33 6
M  V30 36 1 34 6
M  V30 37 1 35 9
M  V30 38 1 36 9
M  V30 39 1 37 12
M  V30 40 1 38 13
M  V30 41 1 39 13
M  V30 42 1 40 14
M  V30 43 1 41 14
M  V30 44 1 42 16
M  V30 45 1 43 16
M  V30 46 1 44 18
M  V30 47 1 45 18
M  V30 48 1 46 19
M  V30 49 1 47 19
M  V30 50 1 48 20
M  V30 51 1 49 21
M  V30 52 1 50 21
M  V30 53 1 51 21
M  V30 54 1 22 52 CFG=3
M  V30 55 1 53 23
M  V30 56 1 54 23
M  V30 57 1 55 26
M  V30 END BOND
M  V30 END CTAB
M  END
>  <i_epik_Tot_Q>  (1) 
0

>  <i_epik_Tot_abs_Q>  (1) 
0

>  <i_i_glide_confnum>  (1) 
244

>  <i_i_glide_lignum>  (1) 
76

>  <i_i_glide_posenum>  (1) 
154

>  <i_i_glide_rotatable_bonds>  (1) 
7

>  <i_lp_mmshare_version>  (1) 
72125

>  <i_m_source_file_index>  (1) 
45

>  <i_f3d_flags>  (1) 
0

>  <num_sample>  (1) 
100

>  <b_lp_Chiralities_Consistent>  (1) 
1

>  <r_epik_Charging_Adjusted_Penalty>  (1) 
0.38370982414574223

>  <r_epik_Ionization_Penalty>  (1) 
0.3841777034394574

>  <r_epik_Ionization_Penalty_Charging>  (1) 
0

>  <r_epik_Ionization_Penalty_Neutral>  (1) 
0.3841777034394574

>  <r_epik_State_Penalty>  (1) 
0.38370982414574223

>  <r_glide_ring_energy>  (1) 
0

>  <r_i_docking_score>  (1) 
-4.202875054252293

>  <r_i_glide_ecoul>  (1) 
-3.9869062561256339

>  <r_i_glide_eff_state_penalty>  (1) 
0.38370982414574223

>  <r_i_glide_einternal>  (1) 
5.4465876678826035

>  <r_i_glide_emodel>  (1) 
-42.02206030322624

>  <r_i_glide_emodel_strain>  (1) 
2.0301620168825423

>  <r_i_glide_energy>  (1) 
-36.684534559832706

>  <r_i_glide_erotb>  (1) 
0.97453214498294238

>  <r_i_glide_esite>  (1) 
-0.12108984580390175

>  <r_i_glide_evdw>  (1) 
-32.69762830370707

>  <r_i_glide_gscore>  (1) 
-4.5865848783980354

>  <r_i_glide_gscore_strain>  (1) 
0

>  <r_i_glide_hbond>  (1) 
-0.19465625637516074

>  <r_i_glide_ligand_efficiency>  (1) 
-0.15566203904638123

>  <r_i_glide_ligand_efficiency_ln>  (1) 
-0.97836002281937151

>  <r_i_glide_ligand_efficiency_sa>  (1) 
-0.46698611713914379

>  <r_i_glide_lipo>  (1) 
-1.0454420388963712

>  <r_i_glide_metal>  (1) 
-0

>  <r_i_glide_rewards>  (1) 
-1.9670115287013457

>  <r_lp_Energy>  (1) 
22.834814999999999

>  <r_lp_tautomer_probability>  (1) 
0.99995000000000001

>  <s_epik_cmdline>  (1) 
J2VwaWtfcHl0aG9uJywgJy1waHQnLCAnMS4wJywgJy1waCcsICc3LjQnLCAnLXRuJywgJzgnLCAnLW1hJywgJzUwMCcsICctaW1hZScsICc8aW5maWxlLm1hZT4nLCAnLW9tYWUnLCAnPG91dGZpbGUubWFlPic=

>  <s_epik_input>  (1) 
W0NIM11OMVtDSDJdW0NIMl1DKD1PKVtDQEBdMShbQ0gzXSlDKD1PKVtOSF1bQ0gyXVtDSDJdW0NIMl1bQ0BASF0yW0NIMl1bQ0gyXU4oQzI9TyljKFtjSF1bY0hdW2NIXTMpW2NIXWMzW05IMl0=

>  <s_glide_docking_method>  (1) 
confgen

>  <s_i_glide_gridfile>  (1) 
gpcr_drd2_6luq_protein_autoprepared_prepared

>  <s_lp_Force_Field>  (1) 
S-OPLS

>  <s_lp_Variant>  (1) 
DiffSBDD_44_num_sample_100-1

>  <s_m_source_file>  (1) 
generated__ligand_DiffSBDD_2026-05-06_prepared.sdf

>  <GenAI_Model>  (1) 
DiffSBDD

>  <Protein>  (1) 
generic_title2

$$$$
DiffSBDD_49_num_sample_100
     RDKit          3D

  0  0  0  0  0  0  0  0  0  0999 V3000
M  V30 BEGIN CTAB
M  V30 COUNTS 52 55 0 0 1
M  V30 BEGIN ATOM
M  V30 1 N 8.371174 4.748355 -16.434293 0
M  V30 2 C 12.921229 3.465035 -17.690157 0
M  V30 3 C 12.555121 5.644103 -16.653306 0
M  V30 4 C 5.443342 7.171312 -17.998399 0
M  V30 5 C 6.823498 5.931183 -11.350719 0
M  V30 6 S 8.569399 4.684499 -19.109678 0
M  V30 7 C 11.528061 3.287960 -17.812846 0
M  V30 8 C 6.127051 5.007961 -13.623319 0 CFG=1
M  V30 9 C 9.139122 4.094211 -17.483773 0 CFG=1
M  V30 10 C 6.562382 6.588205 -18.882907 0
M  V30 11 C 6.605704 6.157117 -14.550166 0
M  V30 12 C 7.314203 5.260098 -16.906632 0
M  V30 13 C 7.860360 4.816081 -11.156027 0 CFG=2
M  V30 14 O 8.634763 5.698214 -9.004275 0
M  V30 15 C 6.252977 5.965820 -16.048472 0 CFG=2
M  V30 16 C 9.047052 5.293618 -10.295487 0
M  V30 17 C 10.645143 4.289484 -17.352616 0
M  V30 18 C 7.136919 3.859118 -13.414521 0
M  V30 19 C 13.433976 4.642745 -17.110363 0
M  V30 20 C 7.019933 5.211340 -18.376153 0 CFG=2
M  V30 21 C 5.666113 5.534102 -12.258169 0
M  V30 22 N 5.904885 7.271901 -16.615954 0
M  V30 23 C 8.327276 4.269267 -12.523311 0
M  V30 24 C 11.163560 5.468738 -16.773023 0
M  V30 25 H 5.344094 5.369301 -16.110043 0
M  V30 26 H 13.596418 2.697457 -18.040532 0
M  V30 27 H 12.947880 6.546076 -16.208045 0
M  V30 28 H 5.161068 8.163434 -18.353923 0
M  V30 29 H 4.549776 6.547498 -18.042054 0
M  V30 30 H 6.371774 6.168808 -10.391690 0
M  V30 31 H 7.302427 6.837193 -11.721752 0
M  V30 32 H 11.136307 2.384331 -18.257073 0
M  V30 33 H 5.234890 4.575635 -14.073407 0
M  V30 34 H 8.935366 3.023008 -17.437219 0
M  V30 35 H 7.409283 7.275964 -18.891933 0
M  V30 36 H 6.219037 6.511557 -19.915910 0
M  V30 37 H 6.098895 7.061728 -14.210215 0
M  V30 38 H 7.663349 6.380694 -14.406558 0
M  V30 39 H 7.363814 4.010280 -10.619815 0
M  V30 40 H 8.010281 6.419900 -9.092940 0
M  V30 41 H 9.566766 6.122426 -10.775365 0
M  V30 42 H 9.768243 4.485578 -10.181730 0
M  V30 43 H 6.619796 3.024239 -12.939385 0
M  V30 44 H 7.487229 3.469837 -14.367288 0
M  V30 45 H 14.501017 4.777281 -17.015058 0
M  V30 46 H 5.062463 4.778198 -11.755092 0
M  V30 47 H 5.034011 6.410263 -12.379987 0
M  V30 48 H 8.938354 5.010403 -13.039732 0
M  V30 49 H 8.973205 3.403577 -12.373533 0
M  V30 50 H 10.493837 6.236452 -16.419587 0
M  V30 51 H 5.198622 7.715726 -16.045166 0
M  V30 52 H 6.255810 4.453884 -18.555260 0
M  V30 END ATOM
M  V30 BEGIN BOND
M  V30 1 1 7 2
M  V30 2 1 9 1
M  V30 3 1 9 6
M  V30 4 1 10 4
M  V30 5 1 11 8
M  V30 6 2 12 1
M  V30 7 1 13 5
M  V30 8 1 15 11
M  V30 9 1 15 12
M  V30 10 1 16 13
M  V30 11 1 16 14
M  V30 12 2 17 7
M  V30 13 1 17 9
M  V30 14 1 18 8
M  V30 15 2 19 2
M  V30 16 1 19 3
M  V30 17 1 20 6
M  V30 18 1 20 10
M  V30 19 1 20 12
M  V30 20 1 21 5
M  V30 21 1 21 8
M  V30 22 1 22 4
M  V30 23 1 22 15
M  V30 24 1 23 13
M  V30 25 1 23 18
M  V30 26 2 24 3
M  V30 27 1 24 17
M  V30 28 1 15 25 CFG=1
M  V30 29 1 26 2
M  V30 30 1 27 3
M  V30 31 1 28 4
M  V30 32 1 29 4
M  V30 33 1 30 5
M  V30 34 1 31 5
M  V30 35 1 32 7
M  V30 36 1 8 33 CFG=3
M  V30 37 1 9 34 CFG=3
M  V30 38 1 35 10
M  V30 39 1 36 10
M  V30 40 1 37 11
M  V30 41 1 38 11
M  V30 42 1 13 39 CFG=1
M  V30 43 1 40 14
M  V30 44 1 41 16
M  V30 45 1 42 16
M  V30 46 1 43 18
M  V30 47 1 44 18
M  V30 48 1 45 19
M  V30 49 1 46 21
M  V30 50 1 47 21
M  V30 51 1 48 23
M  V30 52 1 49 23
M  V30 53 1 50 24
M  V30 54 1 51 22
M  V30 55 1 20 52 CFG=1
M  V30 END BOND
M  V30 END CTAB
M  END
>  <i_epik_Tot_Q>  (1) 
0

>  <i_epik_Tot_abs_Q>  (1) 
0

>  <i_i_glide_confnum>  (1) 
52

>  <i_i_glide_lignum>  (1) 
91

>  <i_i_glide_posenum>  (1) 
78

>  <i_i_glide_rotatable_bonds>  (1) 
5

>  <i_lp_mmshare_version>  (1) 
72125

>  <i_m_source_file_index>  (1) 
50

>  <i_f3d_flags>  (1) 
0

>  <num_sample>  (1) 
100

>  <b_lp_Chiralities_Consistent>  (1) 
1

>  <r_epik_Charging_Adjusted_Penalty>  (1) 
0.1447540794995397

>  <r_epik_Ionization_Penalty>  (1) 
0.14481163516182699

>  <r_epik_Ionization_Penalty_Charging>  (1) 
0

>  <r_epik_Ionization_Penalty_Neutral>  (1) 
0.14481163516182699

>  <r_epik_State_Penalty>  (1) 
0.1447540794995397

>  <r_glide_ring_energy>  (1) 
0.00054349889713039754

>  <r_i_docking_score>  (1) 
-4.201610318660161

>  <r_i_glide_ecoul>  (1) 
-2.3448947630424777

>  <r_i_glide_eff_state_penalty>  (1) 
0.1447540794995397

>  <r_i_glide_einternal>  (1) 
2.2617619580614168

>  <r_i_glide_emodel>  (1) 
-33.658411555976976

>  <r_i_glide_emodel_strain>  (1) 
0.26725776025413239

>  <r_i_glide_energy>  (1) 
-26.46501317680525

>  <r_i_glide_erotb>  (1) 
0.63990235469448886

>  <r_i_glide_esite>  (1) 
0

>  <r_i_glide_evdw>  (1) 
-24.120118413762771

>  <r_i_glide_gscore>  (1) 
-4.3463643981597011

>  <r_i_glide_gscore_strain>  (1) 
0

>  <r_i_glide_hbond>  (1) 
-0.16

>  <r_i_glide_ligand_efficiency>  (1) 
-0.17506709661084005

>  <r_i_glide_ligand_efficiency_ln>  (1) 
-1.0056381485899271

>  <r_i_glide_ligand_efficiency_sa>  (1) 
-0.50498088972389921

>  <r_i_glide_lipo>  (1) 
-1.6290778829635626

>  <r_i_glide_metal>  (1) 
-0

>  <r_i_glide_rewards>  (1) 
-1.6394487347461169

>  <r_lp_Energy>  (1) 
26.842413999999998

>  <r_lp_tautomer_probability>  (1) 
0.99998399999999998

>  <s_epik_Chemistry_Notes>  (1) 
This compound has an imine and may undergo hydrolysis. This compound contains an acetal/aminal-like group ( X-CH(R)-Y where X, Y are N, S, or O) that may be acid/base labile, releasing an aldehyde.

>  <s_epik_cmdline>  (1) 
J2VwaWtfcHl0aG9uJywgJy1waHQnLCAnMS4wJywgJy1waCcsICc3LjQnLCAnLXRuJywgJzgnLCAnLW1hJywgJzUwMCcsICctaW1hZScsICc8aW5maWxlLm1hZT4nLCAnLW9tYWUnLCAnPG91dGZpbGUubWFlPic=

>  <s_epik_input>  (1) 
W2NIXTFbY0hdW2NIXVtjSF1bY0hdYzFbQ0BASF0oW05IXTIpU1tDQEBIXShbQ0BIXTIzKVtDSDJdW0NIMl1OPUMzW0NIMl1bQ0BIXTRbQ0gyXVtDSDJdW0NASF0oW0NIMl1bQ0gyXTQpW0NIMl1bT0hd

>  <s_glide_docking_method>  (1) 
confgen

>  <s_i_glide_gridfile>  (1) 
gpcr_drd2_6luq_protein_autoprepared_prepared

>  <s_lp_Force_Field>  (1) 
S-OPLS

>  <s_lp_Variant>  (1) 
DiffSBDD_49_num_sample_100-1

>  <s_m_source_file>  (1) 
generated__ligand_DiffSBDD_2026-05-06_prepared.sdf

>  <GenAI_Model>  (1) 
DiffSBDD

>  <Protein>  (1) 
generic_title2

$$$$
DiffSBDD_45_num_sample_100
     RDKit          3D

  0  0  0  0  0  0  0  0  0  0999 V3000
M  V30 BEGIN CTAB
M  V30 COUNTS 63 65 0 0 1
M  V30 BEGIN ATOM
M  V30 1 C 5.468783 10.625039 -22.827737 0
M  V30 2 C 6.498653 1.232973 -20.706387 0
M  V30 3 C 3.933384 10.577182 -22.731292 0
M  V30 4 C 6.669999 -0.121256 -17.071944 0 CFG=2
M  V30 5 C 6.130647 0.236777 -18.477089 0 CFG=1
M  V30 6 C 8.932115 -1.107091 -17.384959 0
M  V30 7 C 5.538519 7.167790 -19.859254 0
M  V30 8 C 5.667877 8.123325 -22.311362 0 CFG=2
M  V30 9 O 4.618289 7.956465 -19.643481 0
M  V30 10 N 7.092752 0.850191 -19.417619 0
M  V30 11 Cl 5.387941 -1.196605 -19.261968 0
M  V30 12 C 6.861327 4.311492 -20.173190 0 CFG=1
M  V30 13 C 8.556899 6.044937 -19.156576 0
M  V30 14 C 3.404591 9.156844 -22.778268 0
M  V30 15 C 5.577725 3.513483 -19.828566 0
M  V30 16 N 7.517932 -1.311745 -17.093509 0
M  V30 17 C 6.869724 4.822880 -21.621355 0
M  V30 18 C 5.325461 2.230431 -20.648809 0
M  V30 19 C 4.171401 8.068409 -22.596046 0
M  V30 20 C 8.301760 0.047841 -19.626436 0
M  V30 21 C 7.152800 5.402234 -19.107717 0 CFG=1
M  V30 22 C 6.147313 7.062005 -21.282893 0 CFG=2
M  V30 23 F 5.631253 -0.372103 -16.277150 0
M  V30 24 O 5.861644 5.789070 -21.846888 0
M  V30 25 C 6.133279 9.556186 -21.946786 0
M  V30 26 C 9.232396 0.005177 -18.405397 0
M  V30 27 N 6.057400 6.377249 -18.879439 0
M  V30 28 C 5.524833 6.458874 -17.514290 0
M  V30 29 H 5.828850 11.617859 -22.563440 0
M  V30 30 H 5.767043 10.459226 -23.861518 0
M  V30 31 H 6.180306 0.346638 -21.256585 0
M  V30 32 H 7.272858 1.681197 -21.330182 0
M  V30 33 H 3.495048 11.144678 -23.552818 0
M  V30 34 H 3.592161 11.038671 -21.803932 0
M  V30 35 H 7.184720 0.723934 -16.613647 0
M  V30 36 H 5.314262 0.938880 -18.314912 0
M  V30 37 H 9.355162 -2.048958 -17.728351 0
M  V30 38 H 9.444791 -0.876095 -16.454612 0
M  V30 39 H 6.139354 7.869475 -23.261564 0
M  V30 40 H 7.694539 3.612871 -20.099780 0
M  V30 41 H 9.326798 5.278266 -19.078432 0
M  V30 42 H 8.779050 6.607958 -20.058820 0
M  V30 43 H 8.696934 6.713870 -18.309064 0
M  V30 44 H 2.347766 9.039453 -22.970197 0
M  V30 45 H 5.612685 3.233971 -18.775469 0
M  V30 46 H 4.706381 4.161649 -19.929982 0
M  V30 47 H 7.434603 -1.830698 -16.216041 0
M  V30 48 H 6.692403 3.997364 -22.309629 0
M  V30 49 H 7.848487 5.216849 -21.895331 0
M  V30 50 H 4.445187 1.725460 -20.251663 0
M  V30 51 H 5.050955 2.496979 -21.669265 0
M  V30 52 H 3.724140 7.086498 -22.647296 0
M  V30 53 H 8.056548 -0.958005 -19.969631 0
M  V30 54 H 8.878689 0.499313 -20.434780 0
M  V30 55 H 7.214475 4.808938 -18.195431 0
M  V30 56 H 7.216314 7.230983 -21.227469 0
M  V30 57 H 5.895401 9.769288 -20.907262 0
M  V30 58 H 7.219353 9.630818 -22.026837 0
M  V30 59 H 10.255692 -0.137434 -18.753651 0
M  V30 60 H 9.231296 0.978724 -17.913000 0
M  V30 61 H 4.495613 6.099289 -17.495446 0
M  V30 62 H 6.090758 5.883648 -16.781669 0
M  V30 63 H 5.525832 7.494033 -17.169021 0
M  V30 END ATOM
M  V30 BEGIN BOND
M  V30 1 1 3 1
M  V30 2 1 5 4
M  V30 3 2 9 7
M  V30 4 1 10 2
M  V30 5 1 10 5
M  V30 6 1 11 5
M  V30 7 1 14 3
M  V30 8 1 15 12
M  V30 9 1 16 4
M  V30 10 1 16 6
M  V30 11 1 17 12
M  V30 12 1 18 2
M  V30 13 1 18 15
M  V30 14 1 19 8
M  V30 15 2 19 14
M  V30 16 1 20 10
M  V30 17 1 21 12
M  V30 18 1 21 13
M  V30 19 1 22 7
M  V30 20 1 22 8
M  V30 21 1 23 4
M  V30 22 1 24 17
M  V30 23 1 24 22
M  V30 24 1 25 1
M  V30 25 1 25 8
M  V30 26 1 26 6
M  V30 27 1 26 20
M  V30 28 1 27 7
M  V30 29 1 27 21
M  V30 30 1 28 27
M  V30 31 1 29 1
M  V30 32 1 30 1
M  V30 33 1 31 2
M  V30 34 1 32 2
M  V30 35 1 33 3
M  V30 36 1 34 3
M  V30 37 1 4 35 CFG=1
M  V30 38 1 5 36 CFG=1
M  V30 39 1 37 6
M  V30 40 1 38 6
M  V30 41 1 8 39 CFG=3
M  V30 42 1 12 40 CFG=3
M  V30 43 1 41 13
M  V30 44 1 42 13
M  V30 45 1 43 13
M  V30 46 1 44 14
M  V30 47 1 45 15
M  V30 48 1 46 15
M  V30 49 1 47 16
M  V30 50 1 48 17
M  V30 51 1 49 17
M  V30 52 1 50 18
M  V30 53 1 51 18
M  V30 54 1 52 19
M  V30 55 1 53 20
M  V30 56 1 54 20
M  V30 57 1 21 55 CFG=1
M  V30 58 1 22 56 CFG=1
M  V30 59 1 57 25
M  V30 60 1 58 25
M  V30 61 1 59 26
M  V30 62 1 60 26
M  V30 63 1 61 28
M  V30 64 1 62 28
M  V30 65 1 63 28
M  V30 END BOND
M  V30 END CTAB
M  END
>  <i_epik_Tot_Q>  (1) 
0

>  <i_epik_Tot_abs_Q>  (1) 
0

>  <i_i_glide_confnum>  (1) 
235

>  <i_i_glide_lignum>  (1) 
85

>  <i_i_glide_posenum>  (1) 
335

>  <i_i_glide_rotatable_bonds>  (1) 
5

>  <i_lp_mmshare_version>  (1) 
72125

>  <i_m_source_file_index>  (1) 
46

>  <i_f3d_flags>  (1) 
0

>  <num_sample>  (1) 
100

>  <b_lp_Chiralities_Consistent>  (1) 
1

>  <r_epik_Charging_Adjusted_Penalty>  (1) 
0.015133208647659156

>  <r_epik_Ionization_Penalty>  (1) 
0.015206278080010002

>  <r_epik_Ionization_Penalty_Charging>  (1) 
0

>  <r_epik_Ionization_Penalty_Neutral>  (1) 
0.015206278080010002

>  <r_epik_State_Penalty>  (1) 
0.015133208647659156

>  <r_glide_ring_energy>  (1) 
0.92753117685039699

>  <r_i_docking_score>  (1) 
-4.1967431699531135

>  <r_i_glide_ecoul>  (1) 
-2.5659499485950894

>  <r_i_glide_eff_state_penalty>  (1) 
0.015133208647659156

>  <r_i_glide_einternal>  (1) 
6.651505788836511

>  <r_i_glide_emodel>  (1) 
-28.178315004794516

>  <r_i_glide_emodel_strain>  (1) 
0.068999432356179113

>  <r_i_glide_energy>  (1) 
-27.099000005638807

>  <r_i_glide_erotb>  (1) 
0.45657733151366331

>  <r_i_glide_esite>  (1) 
0

>  <r_i_glide_evdw>  (1) 
-24.533050057043717

>  <r_i_glide_gscore>  (1) 
-4.2118763786007722

>  <r_i_glide_gscore_strain>  (1) 
0

>  <r_i_glide_hbond>  (1) 
-0.32000000000000001

>  <r_i_glide_ligand_efficiency>  (1) 
-0.14988368464118262

>  <r_i_glide_ligand_efficiency_ln>  (1) 
-0.96873154535896733

>  <r_i_glide_ligand_efficiency_sa>  (1) 
-0.45513514384550485

>  <r_i_glide_lipo>  (1) 
-1.473906807370126

>  <r_i_glide_metal>  (1) 
-0

>  <r_i_glide_rewards>  (1) 
-1.2630019076028609

>  <r_lp_Energy>  (1) 
32.929097999999996

>  <s_epik_cmdline>  (1) 
J2VwaWtfcHl0aG9uJywgJy1waHQnLCAnMS4wJywgJy1waCcsICc3LjQnLCAnLXRuJywgJzgnLCAnLW1hJywgJzUwMCcsICctaW1hZScsICc8aW5maWxlLm1hZT4nLCAnLW9tYWUnLCAnPG91dGZpbGUubWFlPic=

>  <s_epik_input>  (1) 
W0NIMl0xW0NIMl1bQ0gyXVtDSF09W0NIXVtDQEhdMVtDQEBIXShDMj1PKU9bQ0gyXVtDQEBIXShbQ0BASF0oW0NIM10pTjJbQ0gzXSlbQ0gyXVtDSDJdW0NIMl1OKFtDQEBIXShDbClbQ0BASF0zRilbQ0gyXVtDSDJdW0NIMl1bTkhdMw==

>  <s_glide_docking_method>  (1) 
confgen

>  <s_i_glide_gridfile>  (1) 
gpcr_drd2_6luq_protein_autoprepared_prepared

>  <s_lp_Force_Field>  (1) 
S-OPLS

>  <s_lp_Variant>  (1) 
DiffSBDD_45_num_sample_100-4

>  <s_m_source_file>  (1) 
generated__ligand_DiffSBDD_2026-05-06_prepared.sdf

>  <GenAI_Model>  (1) 
DiffSBDD

>  <Protein>  (1) 
generic_title2

$$$$
DiffSBDD_25_num_sample_100
     RDKit          3D

  0  0  0  0  0  0  0  0  0  0999 V3000
M  V30 BEGIN CTAB
M  V30 COUNTS 66 69 0 0 1
M  V30 BEGIN ATOM
M  V30 1 C 10.541839 7.960312 -6.073151 0
M  V30 2 C 7.667158 5.903463 -18.589866 0
M  V30 3 C 7.008826 5.647958 -16.130097 0
M  V30 4 C 7.399349 5.447397 -11.380494 0 CFG=2
M  V30 5 C 4.991524 8.034847 -20.825234 0
M  V30 6 O 4.710182 5.810480 -20.114175 0
M  V30 7 C 4.472863 6.606510 -18.965378 0 CFG=1
M  V30 8 C 5.366457 6.576853 -21.102411 0 CFG=2
M  V30 9 F 8.888435 6.110558 -18.089988 0
M  V30 10 C 6.867169 6.247601 -21.107449 0
M  V30 11 C 10.242205 7.062803 -10.049794 0
M  V30 12 C 5.190780 6.035892 -17.755889 0
M  V30 13 F 7.552433 4.599078 -18.841372 0
M  V30 14 C 5.974726 7.097779 -12.803259 0 CFG=1
M  V30 15 N 10.516812 7.610739 -8.812386 0
M  V30 16 C 6.666111 6.345314 -17.476101 0 CFG=2
M  V30 17 O 8.169781 7.628211 -12.155190 0
M  V30 18 C 9.781373 4.652912 -12.012997 0
M  V30 19 C 5.659496 6.739903 -14.272564 0
M  V30 20 F 5.066555 6.683930 -11.926759 0
M  V30 21 C 8.810877 5.022192 -10.886389 0 CFG=1
M  V30 22 C 7.840444 5.976872 -13.877643 0
M  V30 23 C 9.832729 6.813124 -7.981509 0
M  V30 24 C 6.533624 4.209674 -11.732239 0
M  V30 25 C 4.665145 8.069706 -19.344580 0
M  V30 26 O 9.136047 5.805279 -8.581571 0
M  V30 27 O 5.834695 3.769563 -10.599965 0
M  V30 28 C 7.717327 6.714154 -19.909008 0
M  V30 29 N 6.971752 6.525835 -14.925587 0 CFG=1 CHG=1
M  V30 30 C 9.421802 5.979050 -9.907731 0
M  V30 31 O 9.781511 6.904156 -6.640270 0
M  V30 32 C 7.370948 6.519892 -12.516123 0 CFG=1
M  V30 33 H 10.520184 7.884434 -4.988678 0
M  V30 34 H 11.587217 7.917151 -6.383297 0
M  V30 35 H 10.130088 8.930374 -6.354757 0
M  V30 36 H 8.015711 5.236927 -16.191873 0
M  V30 37 H 6.394766 4.763701 -15.958778 0
M  V30 38 H 6.916323 5.901155 -10.517291 0
M  V30 39 H 5.770339 8.743117 -21.108987 0
M  V30 40 H 4.095413 8.294312 -21.390875 0
M  V30 41 H 3.434864 6.470304 -18.691484 0
M  V30 42 H 4.959512 6.278784 -22.069399 0
M  V30 43 H 7.285193 6.716419 -21.999068 0
M  V30 44 H 7.003965 5.176208 -21.257420 0
M  V30 45 H 10.658495 7.489166 -10.950500 0
M  V30 46 H 5.101180 4.969349 -17.891661 0
M  V30 47 H 4.602884 6.288961 -16.872956 0
M  V30 48 H 5.964407 8.169301 -12.640789 0
M  V30 49 H 6.764997 7.414850 -17.337718 0
M  V30 50 H 7.916462 7.879385 -11.269310 0
M  V30 51 H 10.634935 4.169346 -11.591426 0
M  V30 52 H 9.363107 3.943195 -12.724569 0
M  V30 53 H 10.172551 5.521761 -12.539134 0
M  V30 54 H 5.088108 7.520875 -14.776969 0
M  V30 55 H 5.074155 5.818812 -14.305461 0
M  V30 56 H 8.663108 4.106895 -10.317912 0
M  V30 57 H 8.883717 6.169222 -14.103005 0
M  V30 58 H 7.728508 4.893224 -13.903605 0
M  V30 59 H 7.132968 3.390324 -12.130931 0
M  V30 60 H 5.780503 4.420535 -12.488515 0
M  V30 61 H 3.726380 8.593183 -19.179581 0
M  V30 62 H 5.434816 8.569091 -18.763328 0
M  V30 63 H 5.520441 4.512017 -10.097953 0
M  V30 64 H 7.563688 7.769295 -19.714239 0
M  V30 65 H 8.746436 6.654492 -20.268656 0
M  V30 66 H 7.355558 7.431771 -15.157804 0
M  V30 END ATOM
M  V30 BEGIN BOND
M  V30 1 1 7 6
M  V30 2 1 8 5
M  V30 3 1 8 6
M  V30 4 1 9 2
M  V30 5 1 10 8
M  V30 6 1 12 7
M  V30 7 1 13 2
M  V30 8 1 15 11
M  V30 9 1 16 2
M  V30 10 1 16 3
M  V30 11 1 16 12
M  V30 12 1 19 14
M  V30 13 1 20 14
M  V30 14 1 21 4
M  V30 15 1 21 18
M  V30 16 2 23 15
M  V30 17 1 24 4
M  V30 18 1 25 5
M  V30 19 1 25 7
M  V30 20 1 26 23
M  V30 21 1 27 24
M  V30 22 1 28 2
M  V30 23 1 28 10
M  V30 24 1 29 3
M  V30 25 1 29 19
M  V30 26 1 29 22
M  V30 27 2 30 11
M  V30 28 1 30 21
M  V30 29 1 30 26
M  V30 30 1 31 1
M  V30 31 1 31 23
M  V30 32 1 32 4
M  V30 33 1 32 14
M  V30 34 1 32 17 CFG=1
M  V30 35 1 32 22
M  V30 36 1 33 1
M  V30 37 1 34 1
M  V30 38 1 35 1
M  V30 39 1 36 3
M  V30 40 1 37 3
M  V30 41 1 4 38 CFG=1
M  V30 42 1 39 5
M  V30 43 1 40 5
M  V30 44 1 7 41 CFG=1
M  V30 45 1 8 42 CFG=3
M  V30 46 1 43 10
M  V30 47 1 44 10
M  V30 48 1 45 11
M  V30 49 1 46 12
M  V30 50 1 47 12
M  V30 51 1 14 48 CFG=3
M  V30 52 1 16 49 CFG=1
M  V30 53 1 50 17
M  V30 54 1 51 18
M  V30 55 1 52 18
M  V30 56 1 53 18
M  V30 57 1 54 19
M  V30 58 1 55 19
M  V30 59 1 21 56 CFG=1
M  V30 60 1 57 22
M  V30 61 1 58 22
M  V30 62 1 59 24
M  V30 63 1 60 24
M  V30 64 1 61 25
M  V30 65 1 62 25
M  V30 66 1 63 27
M  V30 67 1 64 28
M  V30 68 1 65 28
M  V30 69 1 29 66 CFG=3
M  V30 END BOND
M  V30 END CTAB
M  END
>  <i_epik_Tot_Q>  (1) 
1

>  <i_epik_Tot_abs_Q>  (1) 
1

>  <i_i_glide_confnum>  (1) 
313

>  <i_i_glide_lignum>  (1) 
39

>  <i_i_glide_posenum>  (1) 
303

>  <i_i_glide_rotatable_bonds>  (1) 
9

>  <i_lp_mmshare_version>  (1) 
72125

>  <i_m_source_file_index>  (1) 
26

>  <i_f3d_flags>  (1) 
0

>  <num_sample>  (1) 
100

>  <b_lp_Chiralities_Consistent>  (1) 
1

>  <r_epik_Charging_Adjusted_Penalty>  (1) 
0.21543991348680042

>  <r_epik_Ionization_Penalty>  (1) 
0.10772808098718631

>  <r_epik_Ionization_Penalty_Charging>  (1) 
0.10771995674340021

>  <r_epik_Ionization_Penalty_Neutral>  (1) 
8.124243786105112e-06

>  <r_epik_State_Penalty>  (1) 
0.10771995674340022

>  <r_glide_ring_energy>  (1) 
0

>  <r_i_docking_score>  (1) 
-4.1957337539499031

>  <r_i_glide_ecoul>  (1) 
-5.2336308249200565

>  <r_i_glide_eff_state_penalty>  (1) 
0.10771995674340022

>  <r_i_glide_einternal>  (1) 
10.622739988151665

>  <r_i_glide_emodel>  (1) 
-32.482112267792061

>  <r_i_glide_emodel_strain>  (1) 
1.7052623284229043

>  <r_i_glide_energy>  (1) 
-28.55944038831732

>  <r_i_glide_erotb>  (1) 
0.56277696399540145

>  <r_i_glide_esite>  (1) 
-0.045804136432281352

>  <r_i_glide_evdw>  (1) 
-23.325809563397264

>  <r_i_glide_gscore>  (1) 
-4.3034537106933035

>  <r_i_glide_gscore_strain>  (1) 
0

>  <r_i_glide_hbond>  (1) 
-0.29845101598938661

>  <r_i_glide_ligand_efficiency>  (1) 
-0.13111667981093447

>  <r_i_glide_ligand_efficiency_ln>  (1) 
-0.93953915889191963

>  <r_i_glide_ligand_efficiency_sa>  (1) 
-0.41626951092490999

>  <r_i_glide_lipo>  (1) 
-1.7999982268307322

>  <r_i_glide_metal>  (1) 
-0

>  <r_i_glide_rewards>  (1) 
-0.77064219352843288

>  <r_lp_Energy>  (1) 
39.383341000000001

>  <s_epik_cmdline>  (1) 
J2VwaWtfcHl0aG9uJywgJy1waHQnLCAnMS4wJywgJy1waCcsICc3LjQnLCAnLXRuJywgJzgnLCAnLW1hJywgJzUwMCcsICctaW1hZScsICc8aW5maWxlLm1hZT4nLCAnLW9tYWUnLCAnPG91dGZpbGUubWFlPic=

>  <s_epik_input>  (1) 
W0NIM11PYzFuW2NIXWMobzEpW0NASF0oW0NIM10pW0NASF0oW0NIMl1bT0hdKVtDQF0yKFtPSF0pW0NASF0oRilbQ0gyXU4oW0NIMl0yKVtDSDJdW0NASF0oW0NIMl0zKUMoRikoRilbQ0gyXVtDSDJdW0NASF0oW0NIMl1bQ0gyXTQpT1tDQEBIXTM0

>  <s_glide_docking_method>  (1) 
confgen

>  <s_i_glide_gridfile>  (1) 
gpcr_drd2_6luq_protein_autoprepared_prepared

>  <s_lp_Force_Field>  (1) 
S-OPLS

>  <s_lp_Variant>  (1) 
DiffSBDD_25_num_sample_100-2

>  <s_m_source_file>  (1) 
generated__ligand_DiffSBDD_2026-05-06_prepared.sdf

>  <GenAI_Model>  (1) 
DiffSBDD

>  <Protein>  (1) 
generic_title2

$$$$
DiffSBDD_15_num_sample_100
     RDKit          3D

  0  0  0  0  0  0  0  0  0  0999 V3000
M  V30 BEGIN CTAB
M  V30 COUNTS 48 51 0 0 1
M  V30 BEGIN ATOM
M  V30 1 C 6.761970 5.364452 -19.298540 0
M  V30 2 C 4.386662 7.723691 -22.442991 0
M  V30 3 C 6.677748 7.623545 -20.282141 0
M  V30 4 C 6.673516 5.677277 -16.386699 0
M  V30 5 C 5.505035 3.470833 -20.131255 0
M  V30 6 C 6.410703 4.002096 -19.206981 0
M  V30 7 C 4.760571 8.752205 -21.447848 0
M  V30 8 C 7.013130 3.088949 -18.184765 0
M  V30 9 C 6.079752 5.830408 -14.967407 0
M  V30 10 C 6.095990 8.703766 -20.814241 0
M  V30 11 C 9.237790 4.995030 -12.893617 0
M  V30 12 C 4.925493 4.281650 -21.113746 0
M  V30 13 C 7.154359 6.008865 -13.875176 0 CFG=2
M  V30 14 C 6.183212 6.218175 -20.270903 0
M  V30 15 C 4.557333 6.403048 -22.315841 0
M  V30 16 F 5.777011 7.116619 -12.360030 0
M  V30 17 C 8.186799 4.878245 -14.002223 0 CFG=1
M  V30 18 N 7.766015 4.689350 -16.418486 0
M  V30 19 C 8.559529 5.076620 -11.521589 0
M  V30 20 C 7.630737 3.425512 -17.012745 0
M  V30 21 F 5.834716 4.967195 -12.218353 0
M  V30 22 C 5.223682 5.658380 -21.204882 0
M  V30 23 O 7.652570 6.169289 -11.513460 0
M  V30 24 C 6.577136 6.054939 -12.440816 0
M  V30 25 C 8.794108 4.912080 -15.410786 0
M  V30 26 H 7.501630 5.767461 -18.633644 0
M  V30 27 H 3.874491 8.092335 -23.320233 0
M  V30 28 H 7.627469 7.769355 -19.790485 0
M  V30 29 H 7.034742 6.644158 -16.734649 0
M  V30 30 H 5.843580 5.377498 -17.022611 0
M  V30 31 H 5.247476 2.422279 -20.086502 0
M  V30 32 H 4.701487 9.711591 -21.962931 0
M  V30 33 H 3.997968 8.788306 -20.668757 0
M  V30 34 H 6.961423 2.037693 -18.429172 0
M  V30 35 H 5.389958 6.674037 -14.952910 0
M  V30 36 H 5.483076 4.948316 -14.737454 0
M  V30 37 H 6.603109 9.653716 -20.727967 0
M  V30 38 H 9.859858 5.876960 -13.051294 0
M  V30 39 H 9.898159 4.129889 -12.917720 0
M  V30 40 H 4.234923 3.842791 -21.815652 0
M  V30 41 H 7.663568 6.957348 -14.054452 0
M  V30 42 H 4.162446 5.780692 -23.106266 0
M  V30 43 H 7.678730 3.920747 -13.871618 0
M  V30 44 H 9.305544 5.230784 -10.741742 0
M  V30 45 H 8.038758 4.149150 -11.281998 0
M  V30 46 H 8.083102 2.647739 -16.413547 0
M  V30 47 H 9.583003 4.169300 -15.509156 0
M  V30 48 H 9.269264 5.871658 -15.603856 0
M  V30 END ATOM
M  V30 BEGIN BOND
M  V30 1 2 6 1
M  V30 2 1 6 5
M  V30 3 1 7 2
M  V30 4 1 8 6
M  V30 5 1 9 4
M  V30 6 2 10 3
M  V30 7 1 10 7
M  V30 8 2 12 5
M  V30 9 1 13 9
M  V30 10 1 14 1
M  V30 11 1 14 3
M  V30 12 2 15 2
M  V30 13 1 17 11
M  V30 14 1 17 13
M  V30 15 1 18 4
M  V30 16 1 19 11
M  V30 17 2 20 8
M  V30 18 1 20 18
M  V30 19 1 22 12
M  V30 20 2 22 14
M  V30 21 1 22 15
M  V30 22 1 23 19
M  V30 23 1 24 13
M  V30 24 1 24 16
M  V30 25 1 24 21
M  V30 26 1 24 23
M  V30 27 1 25 17
M  V30 28 1 25 18
M  V30 29 1 26 1
M  V30 30 1 27 2
M  V30 31 1 28 3
M  V30 32 1 29 4
M  V30 33 1 30 4
M  V30 34 1 31 5
M  V30 35 1 32 7
M  V30 36 1 33 7
M  V30 37 1 34 8
M  V30 38 1 35 9
M  V30 39 1 36 9
M  V30 40 1 37 10
M  V30 41 1 38 11
M  V30 42 1 39 11
M  V30 43 1 40 12
M  V30 44 1 13 41 CFG=3
M  V30 45 1 42 15
M  V30 46 1 17 43 CFG=1
M  V30 47 1 44 19
M  V30 48 1 45 19
M  V30 49 1 46 20
M  V30 50 1 47 25
M  V30 51 1 48 25
M  V30 END BOND
M  V30 END CTAB
M  END
>  <i_epik_Tot_Q>  (1) 
0

>  <i_epik_Tot_abs_Q>  (1) 
0

>  <i_i_glide_confnum>  (1) 
5

>  <i_i_glide_lignum>  (1) 
25

>  <i_i_glide_posenum>  (1) 
325

>  <i_i_glide_rotatable_bonds>  (1) 
2

>  <i_lp_mmshare_version>  (1) 
72125

>  <i_m_source_file_index>  (1) 
16

>  <i_f3d_flags>  (1) 
0

>  <num_sample>  (1) 
100

>  <b_lp_Chiralities_Consistent>  (1) 
1

>  <r_epik_Charging_Adjusted_Penalty>  (1) 
0.41067983895260396

>  <r_epik_Ionization_Penalty>  (1) 
0.00043588865487499098

>  <r_epik_Ionization_Penalty_Charging>  (1) 
0

>  <r_epik_Ionization_Penalty_Neutral>  (1) 
0.00043588865487499098

>  <r_epik_State_Penalty>  (1) 
0.41067983895260396

>  <r_glide_ring_energy>  (1) 
0.0078002469909557517

>  <r_i_docking_score>  (1) 
-4.1889288891208398

>  <r_i_glide_ecoul>  (1) 
0.9066117629910162

>  <r_i_glide_eff_state_penalty>  (1) 
0.41067983895260396

>  <r_i_glide_einternal>  (1) 
2.778518993454469

>  <r_i_glide_emodel>  (1) 
-30.86017243016439

>  <r_i_glide_emodel_strain>  (1) 
0

>  <r_i_glide_energy>  (1) 
-25.601140040431389

>  <r_i_glide_erotb>  (1) 
0.32177656458331499

>  <r_i_glide_esite>  (1) 
-0.052758291186463191

>  <r_i_glide_evdw>  (1) 
-26.507751803422405

>  <r_i_glide_gscore>  (1) 
-4.5996087280734441

>  <r_i_glide_gscore_strain>  (1) 
0

>  <r_i_glide_hbond>  (1) 
0

>  <r_i_glide_ligand_efficiency>  (1) 
-0.16755715556483358

>  <r_i_glide_ligand_efficiency_ln>  (1) 
-0.99290167879062974

>  <r_i_glide_ligand_efficiency_sa>  (1) 
-0.48994009503606611

>  <r_i_glide_lipo>  (1) 
-2.133357878256076

>  <r_i_glide_metal>  (1) 
-0

>  <r_i_glide_rewards>  (1) 
-1.5458732974917524

>  <r_lp_Energy>  (1) 
28.753394999999998

>  <r_lp_tautomer_probability>  (1) 
0.5

>  <s_epik_cmdline>  (1) 
J2VwaWtfcHl0aG9uJywgJy1waHQnLCAnMS4wJywgJy1waCcsICc3LjQnLCAnLXRuJywgJzgnLCAnLW1hJywgJzUwMCcsICctaW1hZScsICc8aW5maWxlLm1hZT4nLCAnLW9tYWUnLCAnPG91dGZpbGUubWFlPic=

>  <s_epik_input>  (1) 
W0NIXTE9W0NIXVtDSDJdW0NIXT1bQ0hdYyhjMTIpW2NIXVtjSF1jKFtjSF0yKS9bQ0hdPVtDSF1cTihbQ0gyXVtDSDJdMylbQ0gyXVtDQEhdKFtDQEBIXTM0KVtDSDJdW0NIMl1PQzQoRilG

>  <s_glide_docking_method>  (1) 
confgen

>  <s_i_glide_gridfile>  (1) 
gpcr_drd2_6luq_protein_autoprepared_prepared

>  <s_lp_Force_Field>  (1) 
S-OPLS

>  <s_lp_Variant>  (1) 
DiffSBDD_15_num_sample_100-2

>  <s_m_source_file>  (1) 
generated__ligand_DiffSBDD_2026-05-06_prepared.sdf

>  <GenAI_Model>  (1) 
DiffSBDD

>  <Protein>  (1) 
generic_title2

$$$$
DiffSBDD_60_num_sample_100
     RDKit          3D

  0  0  0  0  0  0  0  0  0  0999 V3000
M  V30 BEGIN CTAB
M  V30 COUNTS 39 41 0 0 1
M  V30 BEGIN ATOM
M  V30 1 C 7.234790 5.046033 -17.191023 0
M  V30 2 N 8.009554 3.230581 -13.490423 0
M  V30 3 C 6.635314 0.698110 -16.588359 0
M  V30 4 C 6.553132 0.229395 -15.335570 0
M  V30 5 N 7.014053 4.971624 -15.761992 0
M  V30 6 C 6.194853 4.910358 -12.955045 0
M  V30 7 C 7.912747 2.715737 -15.911456 0 CFG=2
M  V30 8 N 7.246892 1.890799 -16.909493 0
M  V30 9 C 8.217682 4.430043 -11.410336 0
M  V30 10 C 7.121165 0.981065 -14.140722 0
M  V30 11 C 7.536640 6.060388 -14.946120 0
M  V30 12 C 7.213697 3.851961 -12.433314 0 CFG=2
M  V30 13 C 7.257974 2.486042 -14.502883 0 CFG=1
M  V30 14 C 8.112630 4.182849 -16.320358 0 CFG=1
M  V30 15 C 6.733875 6.198824 -13.631502 0
M  V30 16 C 7.574197 4.947356 -10.115590 0
M  V30 17 H 6.525863 4.539353 -17.842115 0
M  V30 18 H 7.654248 5.965811 -17.594423 0
M  V30 19 H 8.479850 3.988451 -13.963621 0
M  V30 20 H 6.229035 0.166234 -17.436624 0
M  V30 21 H 5.599027 5.232169 -12.101110 0
M  V30 22 H 5.447524 4.456131 -13.602343 0
M  V30 23 H 8.915018 2.289669 -15.891646 0
M  V30 24 H 8.798487 5.232412 -11.865848 0
M  V30 25 H 8.946285 3.663027 -11.141496 0
M  V30 26 H 8.085335 0.545370 -13.875958 0
M  V30 27 H 6.458723 0.855916 -13.283797 0
M  V30 28 H 8.591951 5.924127 -14.707830 0
M  V30 29 H 7.438043 6.996544 -15.491497 0
M  V30 30 H 6.645097 3.058358 -11.946347 0
M  V30 31 H 6.238844 2.855705 -14.574800 0
M  V30 32 H 9.133139 4.536597 -16.182097 0
M  V30 33 H 5.866020 6.823701 -13.846223 0
M  V30 34 H 7.321145 6.775006 -12.916009 0
M  V30 35 H 8.332375 5.315383 -9.424439 0
M  V30 36 H 7.013472 4.167841 -9.603182 0
M  V30 37 H 6.887444 5.769594 -10.305982 0
M  V30 38 H 6.068821 -0.716765 -15.139550 0
M  V30 39 H 7.290481 2.189115 -17.873060 0
M  V30 END ATOM
M  V30 BEGIN BOND
M  V30 1 2 4 3
M  V30 2 1 5 1
M  V30 3 1 8 3
M  V30 4 1 8 7
M  V30 5 1 10 4
M  V30 6 1 11 5
M  V30 7 1 12 2
M  V30 8 1 12 6
M  V30 9 1 12 9
M  V30 10 1 13 2
M  V30 11 1 13 7
M  V30 12 1 13 10
M  V30 13 1 14 1
M  V30 14 1 14 5
M  V30 15 1 14 7
M  V30 16 1 15 6
M  V30 17 1 15 11
M  V30 18 1 16 9
M  V30 19 1 17 1
M  V30 20 1 18 1
M  V30 21 1 19 2
M  V30 22 1 20 3
M  V30 23 1 21 6
M  V30 24 1 22 6
M  V30 25 1 7 23 CFG=1
M  V30 26 1 24 9
M  V30 27 1 25 9
M  V30 28 1 26 10
M  V30 29 1 27 10
M  V30 30 1 28 11
M  V30 31 1 29 11
M  V30 32 1 12 30 CFG=1
M  V30 33 1 13 31 CFG=3
M  V30 34 1 14 32 CFG=1
M  V30 35 1 33 15
M  V30 36 1 34 15
M  V30 37 1 35 16
M  V30 38 1 36 16
M  V30 39 1 37 16
M  V30 40 1 38 4
M  V30 41 1 39 8
M  V30 END BOND
M  V30 END CTAB
M  END
>  <i_epik_Tot_Q>  (1) 
0

>  <i_epik_Tot_abs_Q>  (1) 
0

>  <i_i_glide_confnum>  (1) 
1

>  <i_i_glide_lignum>  (1) 
120

>  <i_i_glide_posenum>  (1) 
304

>  <i_i_glide_rotatable_bonds>  (1) 
1

>  <i_lp_mmshare_version>  (1) 
72125

>  <i_m_source_file_index>  (1) 
61

>  <i_f3d_flags>  (1) 
0

>  <num_sample>  (1) 
100

>  <b_lp_Chiralities_Consistent>  (1) 
1

>  <r_epik_Charging_Adjusted_Penalty>  (1) 
4.9692066631576726e-06

>  <r_epik_Ionization_Penalty>  (1) 
2.1336840305667621

>  <r_epik_Ionization_Penalty_Charging>  (1) 
4.9692066631576726e-06

>  <r_epik_Ionization_Penalty_Neutral>  (1) 
2.1336790613600991

>  <r_epik_State_Penalty>  (1) 
-0

>  <r_glide_ring_energy>  (1) 
0

>  <r_i_docking_score>  (1) 
-4.188698544879272

>  <r_i_glide_ecoul>  (1) 
0.12739211245138837

>  <r_i_glide_eff_state_penalty>  (1) 
-0

>  <r_i_glide_einternal>  (1) 
0.097273522116914535

>  <r_i_glide_emodel>  (1) 
-21.879931152635397

>  <r_i_glide_emodel_strain>  (1) 
0

>  <r_i_glide_energy>  (1) 
-17.48649240388437

>  <r_i_glide_erotb>  (1) 
0

>  <r_i_glide_esite>  (1) 
0

>  <r_i_glide_evdw>  (1) 
-17.613884516335759

>  <r_i_glide_gscore>  (1) 
-4.188698544879272

>  <r_i_glide_gscore_strain>  (1) 
0

>  <r_i_glide_hbond>  (1) 
0

>  <r_i_glide_ligand_efficiency>  (1) 
-0.2617936590549545

>  <r_i_glide_ligand_efficiency_ln>  (1) 
-1.1102982204729825

>  <r_i_glide_ligand_efficiency_sa>  (1) 
-0.65967868354467751

>  <r_i_glide_lipo>  (1) 
-1.4272155904756465

>  <r_i_glide_metal>  (1) 
-0

>  <r_i_glide_rewards>  (1) 
-1.8998975454545457

>  <r_lp_Energy>  (1) 
35.391235999999999

>  <r_lp_tautomer_probability>  (1) 
1

>  <s_epik_Chemistry_Notes>  (1) 
This compound has an imine and may undergo hydrolysis.

>  <s_epik_cmdline>  (1) 
J2VwaWtfcHl0aG9uJywgJy1waHQnLCAnMS4wJywgJy1waCcsICc3LjQnLCAnLXRuJywgJzgnLCAnLW1hJywgJzUwMCcsICctaW1hZScsICc8aW5maWxlLm1hZT4nLCAnLW9tYWUnLCAnPG91dGZpbGUubWFlPic=

>  <s_epik_input>  (1) 
W05IXTFbQ0hdPVtDSF1bQ0gyXVtDQEhdKFtDQEBIXTFbQ0BIXShOMjMpW0NIMl0yKVtOSF1bQ0BASF0oW0NIMl1bQ0gzXSlbQ0gyXVtDSDJdW0NIMl0z

>  <s_glide_docking_method>  (1) 
confgen

>  <s_i_glide_gridfile>  (1) 
gpcr_drd2_6luq_protein_autoprepared_prepared

>  <s_lp_Force_Field>  (1) 
S-OPLS

>  <s_lp_Variant>  (1) 
DiffSBDD_60_num_sample_100-1

>  <s_m_source_file>  (1) 
generated__ligand_DiffSBDD_2026-05-06_prepared.sdf

>  <GenAI_Model>  (1) 
DiffSBDD

>  <Protein>  (1) 
generic_title2

$$$$
DiffSBDD_85_num_sample_100
     RDKit          3D

  0  0  0  0  0  0  0  0  0  0999 V3000
M  V30 BEGIN CTAB
M  V30 COUNTS 86 88 0 0 1
M  V30 BEGIN ATOM
M  V30 1 O 11.034852 10.032051 -4.568890 0
M  V30 2 C 12.119448 7.852471 -7.969331 0
M  V30 3 C 6.063166 6.942241 -18.504379 0
M  V30 4 C 6.244846 3.099592 -20.051375 0
M  V30 5 C 11.593289 5.728626 -6.689667 0
M  V30 6 C 6.626230 5.502018 -12.398104 0 CFG=1
M  V30 7 C 5.577137 5.550654 -20.587715 0 CFG=2
M  V30 8 C 4.440219 4.455279 -21.287551 0
M  V30 9 C 7.355483 5.428773 -13.774836 0 CFG=2
M  V30 10 C 6.551044 5.858748 -17.519460 0 CFG=2
M  V30 11 C 8.054948 4.937111 -10.307664 0 CFG=2
M  V30 12 C 9.508819 6.576467 -8.846327 0
M  V30 13 C 6.356758 6.312102 -16.047944 0
M  V30 14 C 8.011157 5.461013 -17.828094 0
M  V30 15 C 9.272989 4.169907 -10.849458 0
M  V30 16 C 5.750828 4.274953 -12.047653 0
M  V30 17 C 7.551786 3.277428 -19.236951 0 CFG=1
M  V30 18 O 8.416776 4.669478 -7.901882 0
M  V30 19 C 5.559974 4.162264 -20.533340 0
M  V30 20 O 9.793019 6.951777 -7.556825 0
M  V30 21 C 5.725860 1.759787 -20.338310 0
M  V30 22 C 5.013479 6.423373 -19.485849 0
M  V30 23 C 8.260660 4.668453 -19.140092 0 CFG=2
M  V30 24 C 6.442941 5.170137 -15.008264 0
M  V30 25 C 11.018529 7.866784 -5.670016 0
M  V30 26 C 6.324955 0.625011 -19.931054 0
M  V30 27 C 10.841483 9.375761 -5.804784 0 CFG=2
M  V30 28 C 11.119174 7.127433 -7.032870 0 CFG=2
M  V30 29 C 11.834847 9.992204 -6.779192 0
M  V30 30 C 9.784139 4.503460 -19.312016 0
M  V30 31 O 8.325308 4.404320 -13.752699 0
M  V30 32 C 11.703054 9.304666 -8.149510 0
M  V30 33 O 10.115776 6.953241 -9.848793 0
M  V30 34 N 7.543832 5.931890 -11.297287 0 CHG=1
M  V30 35 C 8.319452 5.616184 -8.936081 0 CFG=2
M  V30 36 O 7.430940 2.707325 -17.946955 0
M  V30 37 H 10.379064 9.739513 -3.957402 0
M  V30 38 H 12.251114 7.369121 -8.933255 0
M  V30 39 H 13.112328 7.834686 -7.530293 0
M  V30 40 H 5.614378 7.769493 -17.955312 0
M  V30 41 H 6.894150 7.369260 -19.063654 0
M  V30 42 H 12.634828 5.705486 -6.412336 0
M  V30 43 H 11.055511 5.369591 -5.818473 0
M  V30 44 H 11.434769 5.014614 -7.491655 0
M  V30 45 H 5.935549 6.340846 -12.488135 0
M  V30 46 H 6.239857 6.061230 -21.283905 0
M  V30 47 H 3.454066 4.415048 -20.831214 0
M  V30 48 H 4.456585 4.344457 -22.369362 0
M  V30 49 H 7.906750 6.358835 -13.918443 0
M  V30 50 H 5.922510 4.980557 -17.651302 0
M  V30 51 H 7.281434 4.204900 -10.086016 0
M  V30 52 H 5.362856 6.752164 -15.948109 0
M  V30 53 H 7.034835 7.126697 -15.810994 0
M  V30 54 H 8.607602 6.369519 -17.891699 0
M  V30 55 H 8.431812 4.904231 -16.988876 0
M  V30 56 H 9.834834 3.731047 -10.028607 0
M  V30 57 H 8.978904 3.351407 -11.503444 0
M  V30 58 H 9.947319 4.816279 -11.411648 0
M  V30 59 H 4.945336 4.123452 -12.763175 0
M  V30 60 H 6.335424 3.355340 -12.018469 0
M  V30 61 H 5.270060 4.401290 -11.076863 0
M  V30 62 H 8.247798 2.628054 -19.769410 0
M  V30 63 H 8.413782 5.158071 -7.090805 0
M  V30 64 H 4.812128 1.674720 -20.908516 0
M  V30 65 H 4.234815 5.884841 -18.951656 0
M  V30 66 H 4.521564 7.272728 -19.962413 0
M  V30 67 H 7.983947 5.285778 -19.988273 0
M  V30 68 H 6.739774 4.243787 -15.503540 0
M  V30 69 H 5.426882 4.968858 -14.685313 0
M  V30 70 H 11.900586 7.674918 -5.066968 0
M  V30 71 H 10.192695 7.453951 -5.091566 0
M  V30 72 H 5.899822 -0.338868 -20.169503 0
M  V30 73 H 7.239743 0.641699 -19.358886 0
M  V30 74 H 9.834864 9.503277 -6.177646 0
M  V30 75 H 11.698155 11.071805 -6.829202 0
M  V30 76 H 12.846636 9.856135 -6.393108 0
M  V30 77 H 10.211822 3.883263 -18.522830 0
M  V30 78 H 10.031403 4.044875 -20.269192 0
M  V30 79 H 10.291873 5.468837 -19.285172 0
M  V30 80 H 7.892366 3.562773 -13.736873 0
M  V30 81 H 10.678196 9.346299 -8.514857 0
M  V30 82 H 12.276414 9.769270 -8.945704 0
M  V30 83 H 7.041828 6.629411 -10.744167 0
M  V30 84 H 7.434830 6.169291 -8.676707 0
M  V30 85 H 6.920554 3.296089 -17.413571 0
M  V30 86 H 8.337946 6.410975 -11.695757 0
M  V30 END ATOM
M  V30 BEGIN BOND
M  V30 1 1 8 7
M  V30 2 1 9 6
M  V30 3 1 10 3
M  V30 4 1 13 10
M  V30 5 1 14 10
M  V30 6 1 15 11
M  V30 7 1 16 6
M  V30 8 1 17 4
M  V30 9 2 19 4
M  V30 10 1 19 7
M  V30 11 1 19 8
M  V30 12 1 20 12
M  V30 13 1 21 4
M  V30 14 1 22 3
M  V30 15 1 22 7
M  V30 16 1 23 14
M  V30 17 1 23 17
M  V30 18 1 24 9
M  V30 19 1 24 13
M  V30 20 2 26 21
M  V30 21 1 27 1
M  V30 22 1 27 25
M  V30 23 1 28 2
M  V30 24 1 28 5
M  V30 25 1 28 20 CFG=3
M  V30 26 1 28 25
M  V30 27 1 29 27
M  V30 28 1 30 23
M  V30 29 1 31 9
M  V30 30 1 32 2
M  V30 31 1 32 29
M  V30 32 2 33 12
M  V30 33 1 34 6
M  V30 34 1 34 11
M  V30 35 1 35 11
M  V30 36 1 35 12
M  V30 37 1 35 18
M  V30 38 1 36 17
M  V30 39 1 37 1
M  V30 40 1 38 2
M  V30 41 1 39 2
M  V30 42 1 40 3
M  V30 43 1 41 3
M  V30 44 1 42 5
M  V30 45 1 43 5
M  V30 46 1 44 5
M  V30 47 1 6 45 CFG=3
M  V30 48 1 7 46 CFG=3
M  V30 49 1 47 8
M  V30 50 1 48 8
M  V30 51 1 9 49 CFG=3
M  V30 52 1 10 50 CFG=1
M  V30 53 1 11 51 CFG=1
M  V30 54 1 52 13
M  V30 55 1 53 13
M  V30 56 1 54 14
M  V30 57 1 55 14
M  V30 58 1 56 15
M  V30 59 1 57 15
M  V30 60 1 58 15
M  V30 61 1 59 16
M  V30 62 1 60 16
M  V30 63 1 61 16
M  V30 64 1 17 62 CFG=3
M  V30 65 1 63 18
M  V30 66 1 64 21
M  V30 67 1 65 22
M  V30 68 1 66 22
M  V30 69 1 23 67 CFG=3
M  V30 70 1 68 24
M  V30 71 1 69 24
M  V30 72 1 70 25
M  V30 73 1 71 25
M  V30 74 1 72 26
M  V30 75 1 73 26
M  V30 76 1 27 74 CFG=3
M  V30 77 1 75 29
M  V30 78 1 76 29
M  V30 79 1 77 30
M  V30 80 1 78 30
M  V30 81 1 79 30
M  V30 82 1 80 31
M  V30 83 1 81 32
M  V30 84 1 82 32
M  V30 85 1 83 34
M  V30 86 1 35 84 CFG=1
M  V30 87 1 85 36
M  V30 88 1 86 34
M  V30 END BOND
M  V30 END CTAB
M  END
>  <i_epik_Tot_Q>  (1) 
1

>  <i_epik_Tot_abs_Q>  (1) 
1

>  <i_i_glide_confnum>  (1) 
2387

>  <i_i_glide_lignum>  (1) 
175

>  <i_i_glide_posenum>  (1) 
380

>  <i_i_glide_rotatable_bonds>  (1) 
15

>  <i_lp_mmshare_version>  (1) 
72125

>  <i_m_source_file_index>  (1) 
86

>  <i_f3d_flags>  (1) 
0

>  <num_sample>  (1) 
100

>  <b_lp_Chiralities_Consistent>  (1) 
1

>  <r_epik_Charging_Adjusted_Penalty>  (1) 
0.062696987853435748

>  <r_epik_Ionization_Penalty>  (1) 
0.034019236300638377

>  <r_epik_Ionization_Penalty_Charging>  (1) 
0.03134849392671793

>  <r_epik_Ionization_Penalty_Neutral>  (1) 
0.0026707423739204469

>  <r_epik_State_Penalty>  (1) 
0.031348493926717819

>  <r_glide_ring_energy>  (1) 
0

>  <r_i_docking_score>  (1) 
-4.1869004288953366

>  <r_i_glide_ecoul>  (1) 
-4.7034253644888793

>  <r_i_glide_eff_state_penalty>  (1) 
0.031348493926717819

>  <r_i_glide_einternal>  (1) 
26.522351358467663

>  <r_i_glide_emodel>  (1) 
-21.089321738250099

>  <r_i_glide_emodel_strain>  (1) 
1.6912207560228865

>  <r_i_glide_energy>  (1) 
-28.976433887847325

>  <r_i_glide_erotb>  (1) 
0.87027123501495496

>  <r_i_glide_esite>  (1) 
-0.19769411427673345

>  <r_i_glide_evdw>  (1) 
-24.273008523358445

>  <r_i_glide_gscore>  (1) 
-4.2182489228220543

>  <r_i_glide_gscore_strain>  (1) 
0

>  <r_i_glide_hbond>  (1) 
-0.20000000000000001

>  <r_i_glide_ligand_efficiency>  (1) 
-0.11630278969153712

>  <r_i_glide_ligand_efficiency_ln>  (1) 
-0.91346855660765125

>  <r_i_glide_ligand_efficiency_sa>  (1) 
-0.38402335040494762

>  <r_i_glide_lipo>  (1) 
-2.9402069528626495

>  <r_i_glide_metal>  (1) 
-0

>  <r_i_glide_rewards>  (1) 
0.1685451401436282

>  <r_lp_Energy>  (1) 
44.733196

>  <s_epik_Chemistry_Notes>  (1) 
This compound has an ester and may undergo hydrolysis at high or low pH.

>  <s_epik_cmdline>  (1) 
J2VwaWtfcHl0aG9uJywgJy1waHQnLCAnMS4wJywgJy1waCcsICc3LjQnLCAnLXRuJywgJzgnLCAnLW1hJywgJzUwMCcsICctaW1hZScsICc8aW5maWxlLm1hZT4nLCAnLW9tYWUnLCAnPG91dGZpbGUubWFlPic=

>  <s_epik_input>  (1) 
W09IXVtDQEhdKFtDSDJdMSlbQ0gyXVtDSDJdW0NIMl1bQ0BdMShbQ0gzXSlPQyg9TylbQ0BIXShbT0hdKVtDQEhdKFtDSDNdKVtOSF1bQ0BIXShbQ0gzXSlbQ0BASF0oW09IXSlbQ0gyXVtDSDJdW0NAQEhdKFtDSDJdW0NIMl0yKVtDSDJdW0NAQEhdKFtDSDNdKVtDQEBIXShbT0hdKS9DKD1DKFxbQ0hdMjMpW0NIMl0zKVtDSF09W0NIMl0=

>  <s_glide_docking_method>  (1) 
confgen

>  <s_i_glide_gridfile>  (1) 
gpcr_drd2_6luq_protein_autoprepared_prepared

>  <s_lp_Force_Field>  (1) 
S-OPLS

>  <s_lp_Variant>  (1) 
DiffSBDD_85_num_sample_100-2

>  <s_m_source_file>  (1) 
generated__ligand_DiffSBDD_2026-05-06_prepared.sdf

>  <GenAI_Model>  (1) 
DiffSBDD

>  <Protein>  (1) 
generic_title2

$$$$
DiffSBDD_77_num_sample_100
     RDKit          3D

  0  0  0  0  0  0  0  0  0  0999 V3000
M  V30 BEGIN CTAB
M  V30 COUNTS 44 46 0 0 1
M  V30 BEGIN ATOM
M  V30 1 C 6.239575 4.953343 -14.282548 0
M  V30 2 C 8.308648 5.439934 -11.170467 0 CFG=1
M  V30 3 N 9.142462 6.488146 -10.577327 0
M  V30 4 S 6.108120 6.561235 -16.515349 0
M  V30 5 C 7.314410 6.014538 -12.166430 0 CFG=1
M  V30 6 C 6.925906 4.754126 -12.919083 0 CFG=2
M  V30 7 O 10.456189 6.767326 -19.114758 0
M  V30 8 C 10.234720 6.997303 -11.167323 0
M  V30 9 C 9.772779 5.690972 -19.664325 0 CFG=1
M  V30 10 C 11.644002 6.232102 -18.548403 0
M  V30 11 O 8.128997 4.017308 -13.029030 0
M  V30 12 N 8.976084 4.361358 -11.894859 0
M  V30 13 C 11.407102 4.718413 -18.584858 0 CFG=2
M  V30 14 C 5.955337 8.045772 -15.491786 0
M  V30 15 C 7.120361 5.515115 -15.423544 0 CFG=2
M  V30 16 F 11.203963 4.274403 -16.291702 0
M  V30 17 O 10.656997 4.631330 -19.776256 0
M  V30 18 O 10.878310 7.883691 -10.570520 0 CHG=-1
M  V30 19 S 8.004134 4.145048 -16.237100 0
M  V30 20 O 6.198087 6.568712 -11.491668 0
M  V30 21 C 9.211121 4.994079 -17.307870 0 CFG=2
M  V30 22 C 8.632778 5.267301 -18.710840 0
M  V30 23 C 10.523861 4.189331 -17.432934 0
M  V30 24 O 10.582892 6.571865 -12.291644 0
M  V30 25 F 10.268925 2.901178 -17.672231 0
M  V30 26 H 5.834848 3.995190 -14.601019 0
M  V30 27 H 5.368362 5.585875 -14.116922 0
M  V30 28 H 7.766074 4.958374 -10.354737 0
M  V30 29 H 8.859509 6.856627 -9.678741 0
M  V30 30 H 7.783976 6.752850 -12.817218 0
M  V30 31 H 6.260589 4.164646 -12.284557 0
M  V30 32 H 9.388764 5.957194 -20.649950 0
M  V30 33 H 12.487245 6.503944 -19.184612 0
M  V30 34 H 11.833960 6.614276 -17.544989 0
M  V30 35 H 9.793015 4.804783 -12.315954 0
M  V30 36 H 12.338702 4.156330 -18.656793 0
M  V30 37 H 5.391630 8.811721 -16.023227 0
M  V30 38 H 5.435124 7.814566 -14.562878 0
M  V30 39 H 6.939743 8.446660 -15.249144 0
M  V30 40 H 7.887712 6.164374 -15.003209 0
M  V30 41 H 6.530801 7.122457 -10.776162 0
M  V30 42 H 9.451631 5.946971 -16.836295 0
M  V30 43 H 8.157760 4.374447 -19.118827 0
M  V30 44 H 7.886007 6.059366 -18.684995 0
M  V30 END ATOM
M  V30 BEGIN BOND
M  V30 1 1 3 2
M  V30 2 1 5 2
M  V30 3 1 6 1
M  V30 4 1 6 5
M  V30 5 1 8 3
M  V30 6 1 9 7
M  V30 7 1 10 7
M  V30 8 1 11 6
M  V30 9 1 12 2
M  V30 10 1 12 11
M  V30 11 1 13 10
M  V30 12 1 14 4
M  V30 13 1 15 1
M  V30 14 1 15 4
M  V30 15 1 17 9
M  V30 16 1 17 13
M  V30 17 1 18 8
M  V30 18 1 19 15
M  V30 19 1 20 5
M  V30 20 1 21 19
M  V30 21 1 22 9
M  V30 22 1 22 21
M  V30 23 1 23 13
M  V30 24 1 23 16
M  V30 25 1 23 21
M  V30 26 2 24 8
M  V30 27 1 25 23
M  V30 28 1 26 1
M  V30 29 1 27 1
M  V30 30 1 2 28 CFG=1
M  V30 31 1 29 3
M  V30 32 1 5 30 CFG=3
M  V30 33 1 6 31 CFG=1
M  V30 34 1 9 32 CFG=3
M  V30 35 1 33 10
M  V30 36 1 34 10
M  V30 37 1 35 12
M  V30 38 1 13 36 CFG=3
M  V30 39 1 37 14
M  V30 40 1 38 14
M  V30 41 1 39 14
M  V30 42 1 15 40 CFG=1
M  V30 43 1 41 20
M  V30 44 1 21 42 CFG=1
M  V30 45 1 43 22
M  V30 46 1 44 22
M  V30 END BOND
M  V30 END CTAB
M  END
>  <i_epik_Tot_Q>  (1) 
-1

>  <i_epik_Tot_abs_Q>  (1) 
1

>  <i_i_glide_confnum>  (1) 
151

>  <i_i_glide_lignum>  (1) 
158

>  <i_i_glide_posenum>  (1) 
385

>  <i_i_glide_rotatable_bonds>  (1) 
8

>  <i_lp_mmshare_version>  (1) 
72125

>  <i_m_source_file_index>  (1) 
78

>  <i_f3d_flags>  (1) 
0

>  <num_sample>  (1) 
100

>  <b_lp_Chiralities_Consistent>  (1) 
1

>  <r_epik_Charging_Adjusted_Penalty>  (1) 
0.0018659666509244193

>  <r_epik_Ionization_Penalty>  (1) 
0.0021781486112202567

>  <r_epik_Ionization_Penalty_Charging>  (1) 
0.0018659666509244193

>  <r_epik_Ionization_Penalty_Neutral>  (1) 
0.00031218196029583734

>  <r_epik_State_Penalty>  (1) 
-0

>  <r_glide_ring_energy>  (1) 
0.18076742027696574

>  <r_i_docking_score>  (1) 
-4.186740549472324

>  <r_i_glide_ecoul>  (1) 
-5.5920874621703431

>  <r_i_glide_eff_state_penalty>  (1) 
-0

>  <r_i_glide_einternal>  (1) 
9.5670456307149401

>  <r_i_glide_emodel>  (1) 
-28.278670384620121

>  <r_i_glide_emodel_strain>  (1) 
1.8953600170436715

>  <r_i_glide_energy>  (1) 
-27.797118688173175

>  <r_i_glide_erotb>  (1) 
0.48685992460838567

>  <r_i_glide_esite>  (1) 
-0.17112683283218411

>  <r_i_glide_evdw>  (1) 
-22.205031226002831

>  <r_i_glide_gscore>  (1) 
-4.186740549472324

>  <r_i_glide_gscore_strain>  (1) 
0

>  <r_i_glide_hbond>  (1) 
-0.20381430968813999

>  <r_i_glide_ligand_efficiency>  (1) 
-0.16746962197889295

>  <r_i_glide_ligand_efficiency_ln>  (1) 
-0.99238297671468423

>  <r_i_glide_ligand_efficiency_sa>  (1) 
-0.48968414527808629

>  <r_i_glide_lipo>  (1) 
-1.2049522321399133

>  <r_i_glide_metal>  (1) 
-0

>  <r_i_glide_rewards>  (1) 
-1.1446424187947795

>  <r_lp_Energy>  (1) 
-9.4210519999999995

>  <r_lp_tautomer_probability>  (1) 
1

>  <s_epik_Chemistry_Notes>  (1) 
This compound contains an acetal/aminal-like group ( X-CH(R)-Y where X, Y are N, S, or O) that may be acid/base labile, releasing an aldehyde. This compound has a N-S or N-O group and may undergo hydrolysis at high or low pH.

>  <s_epik_cmdline>  (1) 
J2VwaWtfcHl0aG9uJywgJy1waHQnLCAnMS4wJywgJy1waCcsICc3LjQnLCAnLXRuJywgJzgnLCAnLW1hJywgJzUwMCcsICctaW1hZScsICc8aW5maWxlLm1hZT4nLCAnLW9tYWUnLCAnPG91dGZpbGUubWFlPic=

>  <s_epik_input>  (1) 
W09IXUMoPU8pW05IXVtDQEhdMVtDQEhdKFtPSF0pW0NASF0oT1tOSF0xKVtDSDJdW0NASF0oU1tDSDNdKVNbQ0BIXShbQ0gyXTIpQyhGKShGKVtDQEBIXShPMylbQ0gyXU9bQ0BIXTIz

>  <s_glide_docking_method>  (1) 
confgen

>  <s_i_glide_gridfile>  (1) 
gpcr_drd2_6luq_protein_autoprepared_prepared

>  <s_lp_Force_Field>  (1) 
S-OPLS

>  <s_lp_Variant>  (1) 
DiffSBDD_77_num_sample_100-1

>  <s_m_source_file>  (1) 
generated__ligand_DiffSBDD_2026-05-06_prepared.sdf

>  <GenAI_Model>  (1) 
DiffSBDD

>  <Protein>  (1) 
generic_title2

$$$$
DiffSBDD_34_num_sample_100
     RDKit          3D

  0  0  0  0  0  0  0  0  0  0999 V3000
M  V30 BEGIN CTAB
M  V30 COUNTS 60 63 0 0 1
M  V30 BEGIN ATOM
M  V30 1 N 7.508447 4.062984 -16.799518 0
M  V30 2 C 5.808644 4.281042 -13.356133 0 CFG=1
M  V30 3 C 10.657622 7.425689 -9.787791 0
M  V30 4 C 10.234817 6.521086 -8.794798 0
M  V30 5 C 7.045592 1.924256 -13.731529 0
M  V30 6 C 11.571431 6.351893 -2.469601 0
M  V30 7 C 6.667682 3.097359 -12.764209 0
M  V30 8 C 7.339390 2.577512 -15.036446 0
M  V30 9 C 11.226656 8.440734 -5.592377 0
M  V30 10 N 11.434839 7.430008 -4.693471 0
M  V30 11 C 9.066988 7.377189 -11.723410 0
M  V30 12 C 11.404596 8.969207 -8.061526 0
M  V30 13 C 11.237929 8.648291 -9.418731 0
M  V30 14 C 11.012339 8.062167 -7.058768 0
M  V30 15 O 11.759556 6.169296 -5.242287 0
M  V30 16 C 5.702231 5.480620 -12.408537 0
M  V30 17 C 11.925381 7.565181 -3.330345 0
M  V30 18 C 5.885495 0.906642 -13.809238 0
M  V30 19 C 10.401436 6.833984 -7.437046 0
M  V30 20 C 8.059324 2.877909 -17.050939 0
M  V30 21 C 6.856439 6.461955 -12.645675 0 CFG=2
M  V30 22 O 7.802713 5.767780 -10.511663 0
M  V30 23 C 7.034823 3.843030 -15.473826 0
M  V30 24 O 11.241683 9.627861 -5.260644 0
M  V30 25 S 7.282592 6.347680 -14.402303 0
M  V30 26 C 10.477142 7.087819 -11.253373 0
M  V30 27 C 8.280052 1.175150 -13.206556 0
M  V30 28 C 8.117404 6.184313 -11.816817 0 CFG=2
M  V30 29 N 7.990895 1.988820 -16.082112 0
M  V30 30 C 6.283878 4.876694 -14.715556 0 CFG=2
M  V30 31 O 8.706763 8.519222 -12.011148 0
M  V30 32 H 4.808535 3.869596 -13.493474 0
M  V30 33 H 9.780935 5.583434 -9.074929 0
M  V30 34 H 11.946430 6.515553 -1.474037 0
M  V30 35 H 12.065016 5.448404 -2.819479 0
M  V30 36 H 10.497421 6.169291 -2.414705 0
M  V30 37 H 7.598460 3.530805 -12.406882 0
M  V30 38 H 6.182735 2.701976 -11.874332 0
M  V30 39 H 11.834846 9.912612 -7.785455 0
M  V30 40 H 11.553491 9.345913 -10.178663 0
M  V30 41 H 11.634045 5.571612 -4.520143 0
M  V30 42 H 4.827373 6.051928 -12.683618 0
M  V30 43 H 5.551484 5.186344 -11.369217 0
M  V30 44 H 13.008554 7.695512 -3.361024 0
M  V30 45 H 11.519198 8.470941 -2.876947 0
M  V30 46 H 5.829563 0.305336 -12.901519 0
M  V30 47 H 6.012508 0.215572 -14.643445 0
M  V30 48 H 4.907537 1.372634 -13.891698 0
M  V30 49 H 10.051934 6.137958 -6.693414 0
M  V30 50 H 8.534418 2.658675 -17.995572 0
M  V30 51 H 6.481663 7.464559 -12.431434 0
M  V30 52 H 7.434662 6.519666 -10.032780 0
M  V30 53 H 8.354747 1.047439 -16.107238 0
M  V30 54 H 10.634856 6.028690 -11.433914 0
M  V30 55 H 11.193093 7.631690 -11.863970 0
M  V30 56 H 8.042937 0.641390 -12.291670 0
M  V30 57 H 9.103669 1.855797 -12.994772 0
M  V30 58 H 8.634748 0.427801 -13.916831 0
M  V30 59 H 8.671491 5.370356 -12.280987 0
M  V30 60 H 5.434680 5.232784 -15.292557 0
M  V30 END ATOM
M  V30 BEGIN BOND
M  V30 1 1 4 3
M  V30 2 1 7 2
M  V30 3 1 7 5
M  V30 4 1 8 5
M  V30 5 1 10 9
M  V30 6 2 13 3
M  V30 7 1 13 12
M  V30 8 1 14 9
M  V30 9 2 14 12
M  V30 10 1 15 10
M  V30 11 1 16 2
M  V30 12 1 17 6
M  V30 13 1 17 10
M  V30 14 1 18 5
M  V30 15 2 19 4
M  V30 16 1 19 14
M  V30 17 2 20 1
M  V30 18 1 21 16
M  V30 19 1 23 1
M  V30 20 2 23 8
M  V30 21 2 24 9
M  V30 22 1 25 21
M  V30 23 1 26 3
M  V30 24 1 26 11
M  V30 25 1 27 5
M  V30 26 1 28 11
M  V30 27 1 28 21
M  V30 28 1 28 22
M  V30 29 1 29 8
M  V30 30 1 29 20
M  V30 31 1 30 2
M  V30 32 1 30 23
M  V30 33 1 30 25
M  V30 34 2 31 11
M  V30 35 1 2 32 CFG=3
M  V30 36 1 33 4
M  V30 37 1 34 6
M  V30 38 1 35 6
M  V30 39 1 36 6
M  V30 40 1 37 7
M  V30 41 1 38 7
M  V30 42 1 39 12
M  V30 43 1 40 13
M  V30 44 1 41 15
M  V30 45 1 42 16
M  V30 46 1 43 16
M  V30 47 1 44 17
M  V30 48 1 45 17
M  V30 49 1 46 18
M  V30 50 1 47 18
M  V30 51 1 48 18
M  V30 52 1 49 19
M  V30 53 1 50 20
M  V30 54 1 21 51 CFG=3
M  V30 55 1 52 22
M  V30 56 1 53 29
M  V30 57 1 54 26
M  V30 58 1 55 26
M  V30 59 1 56 27
M  V30 60 1 57 27
M  V30 61 1 58 27
M  V30 62 1 28 59 CFG=3
M  V30 63 1 30 60 CFG=3
M  V30 END BOND
M  V30 END CTAB
M  END
>  <i_epik_Tot_Q>  (1) 
0

>  <i_epik_Tot_abs_Q>  (1) 
0

>  <i_i_glide_confnum>  (1) 
165

>  <i_i_glide_lignum>  (1) 
62

>  <i_i_glide_posenum>  (1) 
245

>  <i_i_glide_rotatable_bonds>  (1) 
9

>  <i_lp_mmshare_version>  (1) 
72125

>  <i_m_source_file_index>  (1) 
35

>  <i_f3d_flags>  (1) 
0

>  <num_sample>  (1) 
100

>  <b_lp_Chiralities_Consistent>  (1) 
1

>  <r_epik_Charging_Adjusted_Penalty>  (1) 
1.8315475384043096

>  <r_epik_Ionization_Penalty>  (1) 
0.90357436971334326

>  <r_epik_Ionization_Penalty_Charging>  (1) 
0.88195505593321366

>  <r_epik_Ionization_Penalty_Neutral>  (1) 
0.021619313780129622

>  <r_epik_State_Penalty>  (1) 
0.94959248247109596

>  <r_glide_ring_energy>  (1) 
0

>  <r_i_docking_score>  (1) 
-4.1860477589823057

>  <r_i_glide_ecoul>  (1) 
-6.6980325281712352

>  <r_i_glide_eff_state_penalty>  (1) 
0.94959248247109596

>  <r_i_glide_einternal>  (1) 
20.118125266060751

>  <r_i_glide_emodel>  (1) 
-44.629921392105288

>  <r_i_glide_emodel_strain>  (1) 
1.1411712667906642

>  <r_i_glide_energy>  (1) 
-42.840039323141738

>  <r_i_glide_erotb>  (1) 
0.6096786253841594

>  <r_i_glide_esite>  (1) 
-0.062058833617389113

>  <r_i_glide_evdw>  (1) 
-36.142006794970506

>  <r_i_glide_gscore>  (1) 
-5.1356402414534017

>  <r_i_glide_gscore_strain>  (1) 
0

>  <r_i_glide_hbond>  (1) 
-0.16

>  <r_i_glide_ligand_efficiency>  (1) 
-0.13503379867684856

>  <r_i_glide_ligand_efficiency_ln>  (1) 
-0.94408205660764188

>  <r_i_glide_ligand_efficiency_sa>  (1) 
-0.42419256258236665

>  <r_i_glide_lipo>  (1) 
-2.6293441478849955

>  <r_i_glide_metal>  (1) 
-0

>  <r_i_glide_rewards>  (1) 
-0.082110666360965423

>  <r_lp_Energy>  (1) 
38.656515999999996

>  <r_lp_tautomer_probability>  (1) 
0.49995000249987359

>  <s_epik_Chemistry_Notes>  (1) 
This compound has a N-S or N-O group and may undergo hydrolysis at high or low pH.

>  <s_epik_cmdline>  (1) 
J2VwaWtfcHl0aG9uJywgJy1waHQnLCAnMS4wJywgJy1waCcsICc3LjQnLCAnLXRuJywgJzgnLCAnLW1hJywgJzUwMCcsICctaW1hZScsICc8aW5maWxlLm1hZT4nLCAnLW9tYWUnLCAnPG91dGZpbGUubWFlPic=

>  <s_epik_input>  (1) 
TjE9W0NIXU49QyhDKFtDSDJdMikoW0NIM10pW0NIM10pW0NASF0xW0NAQEhdKFtDQEBIXTIzKVNbQ0BASF0oW0NIMl0zKVtDQEhdKFtPSF0pQyg9TylbQ0gyXWM0W2NIXVtjSF1jKFtjSF1bY0hdNClDKD1PKU4oW09IXSlbQ0gyXVtDSDNd

>  <s_glide_docking_method>  (1) 
confgen

>  <s_i_glide_gridfile>  (1) 
gpcr_drd2_6luq_protein_autoprepared_prepared

>  <s_lp_Force_Field>  (1) 
S-OPLS

>  <s_lp_Variant>  (1) 
DiffSBDD_34_num_sample_100-3

>  <s_m_source_file>  (1) 
generated__ligand_DiffSBDD_2026-05-06_prepared.sdf

>  <GenAI_Model>  (1) 
DiffSBDD

>  <Protein>  (1) 
generic_title2

$$$$
DiffSBDD_55_num_sample_100
     RDKit          3D

  0  0  0  0  0  0  0  0  0  0999 V3000
M  V30 BEGIN CTAB
M  V30 COUNTS 51 54 0 0 1
M  V30 BEGIN ATOM
M  V30 1 O 9.448374 6.060870 -10.508586 0
M  V30 2 C 5.192897 -0.585697 -16.686918 0
M  V30 3 C 8.941729 5.241280 -14.149262 0
M  V30 4 C 8.020689 4.837959 -17.358432 0
M  V30 5 C 6.768941 4.289575 -12.569398 0 CFG=2
M  V30 6 C 7.563585 5.485063 -12.026531 0 CFG=1
M  V30 7 S 7.262969 -0.230696 -18.405877 0
M  V30 8 C 5.473534 -0.118632 -18.120016 0
M  V30 9 C 6.404246 -0.141742 -15.885124 0
M  V30 10 C 8.751488 5.086084 -8.487525 0
M  V30 11 N 7.842530 4.581279 -14.889480 0 CFG=1 CHG=1
M  V30 12 C 8.455799 5.084127 -10.826130 0 CFG=2
M  V30 13 C 8.328338 6.216590 -13.143812 0 CFG=2
M  V30 14 C 7.669889 4.948027 -9.529126 0
M  V30 15 C 9.570200 6.215296 -9.093042 0
M  V30 16 C 8.339537 1.404039 -16.428612 0
M  V30 17 C 8.288761 3.919720 -16.155476 0 CFG=1
M  V30 18 C 7.703562 0.041228 -16.669159 0 CFG=2
M  V30 19 C 7.408974 2.963516 -12.978790 0
M  V30 20 O 6.340323 0.069174 -14.674378 0
M  V30 21 O 7.435033 7.060595 -13.857849 0
M  V30 22 C 7.654994 2.561373 -16.396362 0
M  V30 23 C 6.841676 3.866712 -14.037087 0 CFG=1
M  V30 24 H 4.269763 -0.164249 -16.288575 0
M  V30 25 H 5.117947 -1.671635 -16.638363 0
M  V30 26 H 9.567893 5.769049 -14.865693 0
M  V30 27 H 9.605100 4.531729 -13.657131 0
M  V30 28 H 8.307759 4.346793 -18.291372 0
M  V30 29 H 6.963471 5.101077 -17.437692 0
M  V30 30 H 8.596964 5.761524 -17.289069 0
M  V30 31 H 5.804553 4.171957 -12.077126 0
M  V30 32 H 6.838748 6.205817 -11.642662 0
M  V30 33 H 5.169856 0.921693 -18.241249 0
M  V30 34 H 4.930721 -0.704365 -18.861976 0
M  V30 35 H 9.351776 4.176795 -8.428839 0
M  V30 36 H 8.370432 5.316348 -7.491979 0
M  V30 37 H 8.985917 4.151349 -11.025787 0
M  V30 38 H 9.102063 6.862746 -12.730404 0
M  V30 39 H 6.963351 5.768064 -9.416599 0
M  V30 40 H 7.101753 4.022682 -9.458679 0
M  V30 41 H 10.611714 6.195774 -8.766451 0
M  V30 42 H 9.142049 7.180929 -8.818267 0
M  V30 43 H 9.409705 1.413710 -16.280722 0
M  V30 44 H 9.368091 3.764415 -16.100158 0
M  V30 45 H 8.405501 -0.731449 -16.356154 0
M  V30 46 H 6.847211 2.059758 -12.752004 0
M  V30 47 H 8.486677 2.848929 -12.892682 0
M  V30 48 H 7.091286 7.711437 -13.261248 0
M  V30 49 H 6.589706 2.549369 -16.550062 0
M  V30 50 H 5.904050 3.634244 -14.528837 0
M  V30 51 H 7.315118 5.387578 -15.200906 0
M  V30 END ATOM
M  V30 BEGIN BOND
M  V30 1 1 6 5
M  V30 2 1 8 2
M  V30 3 1 8 7
M  V30 4 1 9 2
M  V30 5 1 11 3
M  V30 6 1 12 1
M  V30 7 1 12 6
M  V30 8 1 13 3
M  V30 9 1 13 6
M  V30 10 1 14 10
M  V30 11 1 14 12
M  V30 12 1 15 1
M  V30 13 1 15 10
M  V30 14 1 17 4
M  V30 15 1 17 11
M  V30 16 1 18 7
M  V30 17 1 18 9
M  V30 18 1 18 16
M  V30 19 1 19 5
M  V30 20 2 20 9
M  V30 21 1 21 13
M  V30 22 2 22 16
M  V30 23 1 22 17
M  V30 24 1 23 5
M  V30 25 1 23 11
M  V30 26 1 23 19
M  V30 27 1 24 2
M  V30 28 1 25 2
M  V30 29 1 26 3
M  V30 30 1 27 3
M  V30 31 1 28 4
M  V30 32 1 29 4
M  V30 33 1 30 4
M  V30 34 1 5 31 CFG=1
M  V30 35 1 6 32 CFG=1
M  V30 36 1 33 8
M  V30 37 1 34 8
M  V30 38 1 35 10
M  V30 39 1 36 10
M  V30 40 1 12 37 CFG=3
M  V30 41 1 13 38 CFG=1
M  V30 42 1 39 14
M  V30 43 1 40 14
M  V30 44 1 41 15
M  V30 45 1 42 15
M  V30 46 1 43 16
M  V30 47 1 17 44 CFG=1
M  V30 48 1 18 45 CFG=1
M  V30 49 1 46 19
M  V30 50 1 47 19
M  V30 51 1 48 21
M  V30 52 1 49 22
M  V30 53 1 23 50 CFG=3
M  V30 54 1 11 51 CFG=3
M  V30 END BOND
M  V30 END CTAB
M  END
>  <i_epik_Tot_Q>  (1) 
1

>  <i_epik_Tot_abs_Q>  (1) 
1

>  <i_i_glide_confnum>  (1) 
69

>  <i_i_glide_lignum>  (1) 
105

>  <i_i_glide_posenum>  (1) 
393

>  <i_i_glide_rotatable_bonds>  (1) 
5

>  <i_lp_mmshare_version>  (1) 
72125

>  <i_m_source_file_index>  (1) 
56

>  <i_f3d_flags>  (1) 
0

>  <num_sample>  (1) 
100

>  <b_lp_Chiralities_Consistent>  (1) 
1

>  <r_epik_Charging_Adjusted_Penalty>  (1) 
0.1887110856522376

>  <r_epik_Ionization_Penalty>  (1) 
0.094355642401006162

>  <r_epik_Ionization_Penalty_Charging>  (1) 
0.094355542826118813

>  <r_epik_Ionization_Penalty_Neutral>  (1) 
9.9574887353862298e-08

>  <r_epik_State_Penalty>  (1) 
0.094355542826118799

>  <r_glide_ring_energy>  (1) 
0.84637042338227952

>  <r_i_docking_score>  (1) 
-4.1741072528860217

>  <r_i_glide_ecoul>  (1) 
-2.8039251015271582

>  <r_i_glide_eff_state_penalty>  (1) 
0.094355542826118799

>  <r_i_glide_einternal>  (1) 
10.359441901436959

>  <r_i_glide_emodel>  (1) 
-34.706993363627866

>  <r_i_glide_emodel_strain>  (1) 
1.260280533357367

>  <r_i_glide_energy>  (1) 
-30.941292252184049

>  <r_i_glide_erotb>  (1) 
0.49519417565235591

>  <r_i_glide_esite>  (1) 
0

>  <r_i_glide_evdw>  (1) 
-28.137367150656889

>  <r_i_glide_gscore>  (1) 
-4.2684627957121402

>  <r_i_glide_gscore_strain>  (1) 
0

>  <r_i_glide_hbond>  (1) 
0

>  <r_i_glide_ligand_efficiency>  (1) 
-0.18148292403852267

>  <r_i_glide_ligand_efficiency_ln>  (1) 
-1.0093369824598333

>  <r_i_glide_ligand_efficiency_sa>  (1) 
-0.51611329508006465

>  <r_i_glide_lipo>  (1) 
-1.1826266538983619

>  <r_i_glide_metal>  (1) 
-0

>  <r_i_glide_rewards>  (1) 
-1.7535731947042166

>  <r_lp_Energy>  (1) 
18.143661999999999

>  <r_lp_tautomer_probability>  (1) 
0.99995000000000001

>  <s_epik_cmdline>  (1) 
J2VwaWtfcHl0aG9uJywgJy1waHQnLCAnMS4wJywgJy1waCcsICc3LjQnLCAnLXRuJywgJzgnLCAnLW1hJywgJzUwMCcsICctaW1hZScsICc8aW5maWxlLm1hZT4nLCAnLW9tYWUnLCAnPG91dGZpbGUubWFlPic=

>  <s_epik_input>  (1) 
W0NIMl0xW0NIMl1bQ0gyXU9bQ0BASF0xW0NASF0yW0NASF0oW09IXSlbQ0gyXU4oW0NASF0oW0NASF0yMylbQ0gyXTMpW0NASF0oW0NIM10pXFtDSF09W0NIXVxbQ0BASF00U1tDSDJdW0NIMl1DND1P

>  <s_glide_docking_method>  (1) 
confgen

>  <s_i_glide_gridfile>  (1) 
gpcr_drd2_6luq_protein_autoprepared_prepared

>  <s_lp_Force_Field>  (1) 
S-OPLS

>  <s_lp_Variant>  (1) 
DiffSBDD_55_num_sample_100-6

>  <s_m_source_file>  (1) 
generated__ligand_DiffSBDD_2026-05-06_prepared.sdf

>  <GenAI_Model>  (1) 
DiffSBDD

>  <Protein>  (1) 
generic_title2

$$$$
DiffSBDD_45_num_sample_100
     RDKit          3D

  0  0  0  0  0  0  0  0  0  0999 V3000
M  V30 BEGIN CTAB
M  V30 COUNTS 63 65 0 0 1
M  V30 BEGIN ATOM
M  V30 1 C 8.014272 -0.001578 -14.747307 0
M  V30 2 C 10.488348 7.262182 -9.467601 0
M  V30 3 C 6.610251 -0.599910 -14.677003 0
M  V30 4 C 9.743807 8.391471 -6.554929 0 CFG=1
M  V30 5 C 10.361671 7.033947 -6.936569 0 CFG=1
M  V30 6 C 12.032214 9.502845 -6.312024 0
M  V30 7 C 6.951030 4.489167 -14.347699 0
M  V30 8 C 7.285631 1.997852 -13.341650 0 CFG=2
M  V30 9 O 6.634786 4.725698 -15.511098 0
M  V30 10 N 11.148775 6.967052 -8.190444 0
M  V30 11 Cl 11.377852 6.433141 -5.593963 0
M  V30 12 C 8.472105 5.121184 -11.600651 0 CFG=1
M  V30 13 C 6.011816 5.769234 -10.930455 0
M  V30 14 C 5.576571 0.428491 -14.296699 0
M  V30 15 C 8.911534 5.237541 -10.116973 0
M  V30 16 N 10.635336 9.357603 -5.891463 0
M  V30 17 C 9.228935 3.921215 -12.146592 0
M  V30 18 C 9.101579 6.685707 -9.670636 0
M  V30 19 C 5.879009 1.589554 -13.707106 0
M  V30 20 C 12.409472 7.660189 -8.136024 0
M  V30 21 C 6.935695 5.000275 -11.892764 0 CFG=1
M  V30 22 C 7.826795 3.273763 -14.040292 0 CFG=2
M  V30 23 F 9.152730 8.969290 -7.590221 0
M  V30 24 O 9.034881 3.769340 -13.523702 0
M  V30 25 C 8.269809 0.817652 -13.478792 0
M  V30 26 C 12.351034 9.125195 -7.769537 0
M  V30 27 N 6.594607 5.298492 -13.319200 0
M  V30 28 C 5.861616 6.543779 -13.590691 0
M  V30 29 H 8.114225 0.624462 -15.634543 0
M  V30 30 H 8.738166 -0.810381 -14.839901 0
M  V30 31 H 11.125807 6.969908 -10.303297 0
M  V30 32 H 10.387865 8.343915 -9.563918 0
M  V30 33 H 6.634817 -1.355221 -13.891627 0
M  V30 34 H 6.333524 -1.048314 -15.628795 0
M  V30 35 H 8.906258 8.184508 -5.891781 0
M  V30 36 H 9.557015 6.302486 -6.991300 0
M  V30 37 H 12.677665 8.969542 -5.623317 0
M  V30 38 H 12.309548 10.547613 -6.170787 0
M  V30 39 H 7.200713 2.159639 -12.291675 0
M  V30 40 H 8.849662 5.991863 -12.139865 0
M  V30 41 H 6.236923 5.566136 -9.891436 0
M  V30 42 H 6.064522 6.843252 -11.092351 0
M  V30 43 H 4.973462 5.468423 -11.072234 0
M  V30 44 H 4.546356 0.191395 -14.521987 0
M  V30 45 H 8.192564 4.734039 -9.470460 0
M  V30 46 H 9.835076 4.702816 -9.916475 0
M  V30 47 H 10.625226 9.184260 -4.893462 0
M  V30 48 H 9.045181 3.003613 -11.589358 0
M  V30 49 H 10.290589 4.123493 -12.035529 0
M  V30 50 H 8.634829 7.344753 -10.395904 0
M  V30 51 H 8.633442 6.820219 -8.717241 0
M  V30 52 H 5.091161 2.287764 -13.466241 0
M  V30 53 H 13.089521 7.131863 -7.491662 0
M  V30 54 H 12.890530 7.593535 -9.113459 0
M  V30 55 H 6.634621 3.984748 -11.672299 0
M  V30 56 H 8.111093 2.936269 -15.038095 0
M  V30 57 H 9.301698 1.151477 -13.425735 0
M  V30 58 H 8.144118 0.169061 -12.613286 0
M  V30 59 H 13.398285 9.369212 -7.923022 0
M  V30 60 H 11.769408 9.710664 -8.481136 0
M  V30 61 H 5.688367 6.750886 -14.647647 0
M  V30 62 H 4.889377 6.526266 -13.120373 0
M  V30 63 H 6.415128 7.395600 -13.200898 0
M  V30 END ATOM
M  V30 BEGIN BOND
M  V30 1 1 3 1
M  V30 2 1 5 4
M  V30 3 2 9 7
M  V30 4 1 10 2
M  V30 5 1 10 5
M  V30 6 1 11 5
M  V30 7 1 14 3
M  V30 8 1 15 12
M  V30 9 1 16 4
M  V30 10 1 16 6
M  V30 11 1 17 12
M  V30 12 1 18 2
M  V30 13 1 18 15
M  V30 14 1 19 8
M  V30 15 2 19 14
M  V30 16 1 20 10
M  V30 17 1 21 12
M  V30 18 1 21 13
M  V30 19 1 22 7
M  V30 20 1 22 8
M  V30 21 1 23 4
M  V30 22 1 24 17
M  V30 23 1 24 22
M  V30 24 1 25 1
M  V30 25 1 25 8
M  V30 26 1 26 6
M  V30 27 1 26 20
M  V30 28 1 27 7
M  V30 29 1 27 21
M  V30 30 1 28 27
M  V30 31 1 29 1
M  V30 32 1 30 1
M  V30 33 1 31 2
M  V30 34 1 32 2
M  V30 35 1 33 3
M  V30 36 1 34 3
M  V30 37 1 4 35 CFG=1
M  V30 38 1 5 36 CFG=3
M  V30 39 1 37 6
M  V30 40 1 38 6
M  V30 41 1 8 39 CFG=1
M  V30 42 1 12 40 CFG=3
M  V30 43 1 41 13
M  V30 44 1 42 13
M  V30 45 1 43 13
M  V30 46 1 44 14
M  V30 47 1 45 15
M  V30 48 1 46 15
M  V30 49 1 47 16
M  V30 50 1 48 17
M  V30 51 1 49 17
M  V30 52 1 50 18
M  V30 53 1 51 18
M  V30 54 1 52 19
M  V30 55 1 53 20
M  V30 56 1 54 20
M  V30 57 1 21 55 CFG=3
M  V30 58 1 22 56 CFG=3
M  V30 59 1 57 25
M  V30 60 1 58 25
M  V30 61 1 59 26
M  V30 62 1 60 26
M  V30 63 1 61 28
M  V30 64 1 62 28
M  V30 65 1 63 28
M  V30 END BOND
M  V30 END CTAB
M  END
>  <i_epik_Tot_Q>  (1) 
0

>  <i_epik_Tot_abs_Q>  (1) 
0

>  <i_i_glide_confnum>  (1) 
320

>  <i_i_glide_lignum>  (1) 
84

>  <i_i_glide_posenum>  (1) 
313

>  <i_i_glide_rotatable_bonds>  (1) 
5

>  <i_lp_mmshare_version>  (1) 
72125

>  <i_m_source_file_index>  (1) 
46

>  <i_f3d_flags>  (1) 
0

>  <num_sample>  (1) 
100

>  <b_lp_Chiralities_Consistent>  (1) 
1

>  <r_epik_Charging_Adjusted_Penalty>  (1) 
0.015133208647659156

>  <r_epik_Ionization_Penalty>  (1) 
0.015206278080010002

>  <r_epik_Ionization_Penalty_Charging>  (1) 
0

>  <r_epik_Ionization_Penalty_Neutral>  (1) 
0.015206278080010002

>  <r_epik_State_Penalty>  (1) 
0.015133208647659156

>  <r_glide_ring_energy>  (1) 
1.1752419988356746

>  <r_i_docking_score>  (1) 
-4.1667977820001312

>  <r_i_glide_ecoul>  (1) 
-0.34672439924618059

>  <r_i_glide_eff_state_penalty>  (1) 
0.015133208647659156

>  <r_i_glide_einternal>  (1) 
8.296886705894174

>  <r_i_glide_emodel>  (1) 
-17.176679644036408

>  <r_i_glide_emodel_strain>  (1) 
1.3249919165580621

>  <r_i_glide_energy>  (1) 
-17.261997138164698

>  <r_i_glide_erotb>  (1) 
0.45657733151366331

>  <r_i_glide_esite>  (1) 
-0.06825699712129471

>  <r_i_glide_evdw>  (1) 
-16.915272738918517

>  <r_i_glide_gscore>  (1) 
-4.1819309906477899

>  <r_i_glide_gscore_strain>  (1) 
0

>  <r_i_glide_hbond>  (1) 
0

>  <r_i_glide_ligand_efficiency>  (1) 
-0.14881420650000468

>  <r_i_glide_ligand_efficiency_ln>  (1) 
-0.96181927058462358

>  <r_i_glide_ligand_efficiency_sa>  (1) 
-0.45188757831634185

>  <r_i_glide_lipo>  (1) 
-2.341025679215345

>  <r_i_glide_metal>  (1) 
-0

>  <r_i_glide_rewards>  (1) 
-1.3314533489919604

>  <r_lp_Energy>  (1) 
27.293519

>  <s_epik_cmdline>  (1) 
J2VwaWtfcHl0aG9uJywgJy1waHQnLCAnMS4wJywgJy1waCcsICc3LjQnLCAnLXRuJywgJzgnLCAnLW1hJywgJzUwMCcsICctaW1hZScsICc8aW5maWxlLm1hZT4nLCAnLW9tYWUnLCAnPG91dGZpbGUubWFlPic=

>  <s_epik_input>  (1) 
W0NIMl0xW0NIMl1bQ0gyXVtDSF09W0NIXVtDQEhdMVtDQEBIXShDMj1PKU9bQ0gyXVtDQEBIXShbQ0BASF0oW0NIM10pTjJbQ0gzXSlbQ0gyXVtDSDJdW0NIMl1OKFtDQEBIXShDbClbQ0BASF0zRilbQ0gyXVtDSDJdW0NIMl1bTkhdMw==

>  <s_glide_docking_method>  (1) 
confgen

>  <s_i_glide_gridfile>  (1) 
gpcr_drd2_6luq_protein_autoprepared_prepared

>  <s_lp_Force_Field>  (1) 
S-OPLS

>  <s_lp_Variant>  (1) 
DiffSBDD_45_num_sample_100-3

>  <s_m_source_file>  (1) 
generated__ligand_DiffSBDD_2026-05-06_prepared.sdf

>  <GenAI_Model>  (1) 
DiffSBDD

>  <Protein>  (1) 
generic_title2

$$$$
DiffSBDD_67_num_sample_100
     RDKit          3D

  0  0  0  0  0  0  0  0  0  0999 V3000
M  V30 BEGIN CTAB
M  V30 COUNTS 79 83 0 0 1
M  V30 BEGIN ATOM
M  V30 1 C 7.433232 4.001440 -17.034663 0 CFG=2
M  V30 2 C 5.961450 6.071134 -17.805146 0 CFG=1
M  V30 3 C 5.441084 7.294673 -17.029079 0
M  V30 4 C 6.119569 6.345755 -19.322805 0 CFG=1
M  V30 5 C 8.245690 3.307983 -12.584826 0
M  V30 6 C 6.808337 3.428622 -14.693408 0
M  V30 7 C 11.886655 7.755984 -9.480190 0
M  V30 8 C 9.986530 7.949534 -7.980266 0
M  V30 9 C 8.548753 5.993731 -20.154707 0 CFG=2
M  V30 10 C 9.533282 7.606418 -11.485473 0
M  V30 11 C 8.896917 4.066108 -11.416879 0
M  V30 12 C 12.689531 8.393084 -8.566436 0
M  V30 13 C 8.774334 5.743604 -9.688866 0
M  V30 14 O 10.301649 7.348186 -12.429248 0 CHG=-1
M  V30 15 F 10.282998 9.015230 -5.866008 0
M  V30 16 C 5.755516 4.952478 -11.380115 0
M  V30 17 O 8.637426 8.474431 -11.489763 0
M  V30 18 C 7.489072 6.992604 -19.661796 0
M  V30 19 C 8.318257 4.631179 -19.483758 0 CFG=2
M  V30 20 C 10.548843 7.521964 -9.201835 0
M  V30 21 C 7.020450 4.039749 -20.079119 0
M  V30 22 N 5.837187 3.908327 -12.409649 0 CFG=2 CHG=1
M  V30 23 C 6.768486 4.700873 -10.288431 0
M  V30 24 N 8.072451 5.093354 -10.777333 0
M  V30 25 C 5.869623 5.068120 -20.156692 0
M  V30 26 C 7.061462 3.998727 -13.277948 0 CFG=1
M  V30 27 C 8.424536 1.974337 -15.989795 0
M  V30 28 C 9.745284 6.791399 -10.205002 0 CFG=2
M  V30 29 O 9.844787 6.488258 -19.880668 0
M  V30 30 C 8.326093 4.778014 -17.955356 0 CFG=1
M  V30 31 C 7.228036 5.496273 -17.157904 0 CFG=2
M  V30 32 O 13.983522 8.569148 -8.865290 0
M  V30 33 C 12.158529 8.835319 -7.336799 0
M  V30 34 C 4.541255 3.770442 -13.095723 0
M  V30 35 C 10.798927 8.608030 -7.044523 0
M  V30 36 C 7.945185 3.411304 -15.736949 0 CFG=1
M  V30 37 H 6.644447 3.399238 -17.476607 0
M  V30 38 H 5.152854 5.359036 -17.684977 0
M  V30 39 H 6.161297 8.109856 -17.007334 0
M  V30 40 H 4.516108 7.673850 -17.466128 0
M  V30 41 H 5.216412 7.030797 -15.995242 0
M  V30 42 H 5.339810 7.055445 -19.601981 0
M  V30 43 H 9.039330 3.180760 -13.309652 0
M  V30 44 H 7.996527 2.288837 -12.296663 0
M  V30 45 H 6.370204 2.432146 -14.640154 0
M  V30 46 H 6.059434 4.094661 -15.099656 0
M  V30 47 H 12.305021 7.422206 -10.418216 0
M  V30 48 H 8.945780 7.765478 -7.755367 0
M  V30 49 H 14.217832 9.472233 -9.091667 0
M  V30 50 H 8.466335 5.879621 -21.235406 0
M  V30 51 H 9.781184 4.558389 -11.817094 0
M  V30 52 H 9.289138 3.365370 -10.686970 0
M  V30 53 H 9.323524 4.978990 -9.140053 0
M  V30 54 H 8.128920 6.165351 -8.933858 0
M  V30 55 H 5.850138 5.953047 -11.800038 0
M  V30 56 H 4.782739 4.951676 -10.896449 0
M  V30 57 H 7.381120 7.817263 -20.365104 0
M  V30 58 H 7.886930 7.408659 -18.743871 0
M  V30 59 H 9.133823 3.953875 -19.745084 0
M  V30 60 H 6.716885 3.132160 -19.559776 0
M  V30 61 H 7.230953 3.700342 -21.094842 0
M  V30 62 H 6.750195 3.712511 -9.849392 0
M  V30 63 H 6.467182 5.384056 -9.499523 0
M  V30 64 H 4.930836 4.593953 -19.868577 0
M  V30 65 H 5.737676 5.364007 -21.198074 0
M  V30 66 H 7.330659 5.044495 -13.421967 0
M  V30 67 H 7.643375 1.386495 -16.464110 0
M  V30 68 H 9.298125 1.949461 -16.643613 0
M  V30 69 H 8.647700 1.457970 -15.059627 0
M  V30 70 H 10.529454 6.167773 -10.578982 0
M  V30 71 H 10.476341 5.806070 -20.051045 0
M  V30 72 H 9.331020 4.967189 -17.582600 0
M  V30 73 H 7.581160 6.078384 -16.309271 0
M  V30 74 H 12.791713 9.339303 -6.622259 0
M  V30 75 H 4.384888 4.535444 -13.854681 0
M  V30 76 H 4.504064 2.762824 -13.491495 0
M  V30 77 H 3.678004 3.770825 -12.447567 0
M  V30 78 H 8.781584 4.029767 -15.409036 0
M  V30 79 H 5.943270 3.046437 -11.898793 0
M  V30 END ATOM
M  V30 BEGIN BOND
M  V30 1 1 3 2
M  V30 2 1 4 2
M  V30 3 1 11 5
M  V30 4 2 12 7
M  V30 5 1 14 10
M  V30 6 2 17 10
M  V30 7 1 18 4
M  V30 8 1 18 9
M  V30 9 1 19 9
M  V30 10 1 20 7
M  V30 11 2 20 8
M  V30 12 1 21 19
M  V30 13 1 22 16
M  V30 14 1 23 16
M  V30 15 1 24 11
M  V30 16 1 24 13
M  V30 17 1 24 23
M  V30 18 1 25 4
M  V30 19 1 25 21
M  V30 20 1 26 5
M  V30 21 1 26 6
M  V30 22 1 26 22
M  V30 23 1 28 10
M  V30 24 1 28 13
M  V30 25 1 28 20
M  V30 26 1 29 9
M  V30 27 1 30 1
M  V30 28 1 30 19
M  V30 29 1 31 1
M  V30 30 1 31 2
M  V30 31 1 31 30
M  V30 32 1 32 12
M  V30 33 1 33 12
M  V30 34 1 34 22
M  V30 35 1 35 8
M  V30 36 1 35 15
M  V30 37 2 35 33
M  V30 38 1 36 1
M  V30 39 1 36 6
M  V30 40 1 36 27
M  V30 41 1 1 37 CFG=3
M  V30 42 1 2 38 CFG=3
M  V30 43 1 39 3
M  V30 44 1 40 3
M  V30 45 1 41 3
M  V30 46 1 4 42 CFG=3
M  V30 47 1 43 5
M  V30 48 1 44 5
M  V30 49 1 45 6
M  V30 50 1 46 6
M  V30 51 1 47 7
M  V30 52 1 48 8
M  V30 53 1 49 32
M  V30 54 1 9 50 CFG=3
M  V30 55 1 51 11
M  V30 56 1 52 11
M  V30 57 1 53 13
M  V30 58 1 54 13
M  V30 59 1 55 16
M  V30 60 1 56 16
M  V30 61 1 57 18
M  V30 62 1 58 18
M  V30 63 1 19 59 CFG=1
M  V30 64 1 60 21
M  V30 65 1 61 21
M  V30 66 1 62 23
M  V30 67 1 63 23
M  V30 68 1 64 25
M  V30 69 1 65 25
M  V30 70 1 26 66 CFG=3
M  V30 71 1 67 27
M  V30 72 1 68 27
M  V30 73 1 69 27
M  V30 74 1 28 70 CFG=3
M  V30 75 1 71 29
M  V30 76 1 30 72 CFG=1
M  V30 77 1 31 73 CFG=1
M  V30 78 1 74 33
M  V30 79 1 75 34
M  V30 80 1 76 34
M  V30 81 1 77 34
M  V30 82 1 36 78 CFG=1
M  V30 83 1 22 79 CFG=1
M  V30 END BOND
M  V30 END CTAB
M  END
>  <i_epik_Tot_Q>  (1) 
0

>  <i_epik_Tot_abs_Q>  (1) 
2

>  <i_i_glide_confnum>  (1) 
474

>  <i_i_glide_lignum>  (1) 
136

>  <i_i_glide_posenum>  (1) 
160

>  <i_i_glide_rotatable_bonds>  (1) 
9

>  <i_lp_mmshare_version>  (1) 
72125

>  <i_m_source_file_index>  (1) 
68

>  <i_f3d_flags>  (1) 
0

>  <num_sample>  (1) 
100

>  <b_lp_Chiralities_Consistent>  (1) 
1

>  <r_epik_Charging_Adjusted_Penalty>  (1) 
1.0015811376701689

>  <r_epik_Ionization_Penalty>  (1) 
0.014205467742633596

>  <r_epik_Ionization_Penalty_Charging>  (1) 
0.0035901324651834211

>  <r_epik_Ionization_Penalty_Neutral>  (1) 
0.010615335277450176

>  <r_epik_State_Penalty>  (1) 
0.99799100520498552

>  <r_glide_ring_energy>  (1) 
0.19911974857502149

>  <r_i_docking_score>  (1) 
-4.1636256660622042

>  <r_i_glide_ecoul>  (1) 
-8.2433371681614034

>  <r_i_glide_eff_state_penalty>  (1) 
0.99799100520498552

>  <r_i_glide_einternal>  (1) 
10.284568073500751

>  <r_i_glide_emodel>  (1) 
-18.258838905340014

>  <r_i_glide_emodel_strain>  (1) 
5.9102108247411849

>  <r_i_glide_energy>  (1) 
-24.896823768247536

>  <r_i_glide_erotb>  (1) 
0.48522832276191719

>  <r_i_glide_esite>  (1) 
-0.060817647252842916

>  <r_i_glide_evdw>  (1) 
-16.653486600086133

>  <r_i_glide_gscore>  (1) 
-5.1616166712671898

>  <r_i_glide_gscore_strain>  (1) 
0.47755270618529622

>  <r_i_glide_hbond>  (1) 
-0.32000000000000001

>  <r_i_glide_ligand_efficiency>  (1) 
-0.11565626850172789

>  <r_i_glide_ligand_efficiency_ln>  (1) 
-0.90839063216888538

>  <r_i_glide_ligand_efficiency_sa>  (1) 
-0.38188858447132873

>  <r_i_glide_lipo>  (1) 
-2.7603560985880375

>  <r_i_glide_metal>  (1) 
-0

>  <r_i_glide_rewards>  (1) 
-0.91404904914500473

>  <r_lp_Energy>  (1) 
48.874657999999997

>  <s_epik_cmdline>  (1) 
J2VwaWtfcHl0aG9uJywgJy1waHQnLCAnMS4wJywgJy1waCcsICc3LjQnLCAnLXRuJywgJzgnLCAnLW1hJywgJzUwMCcsICctaW1hZScsICc8aW5maWxlLm1hZT4nLCAnLW9tYWUnLCAnPG91dGZpbGUubWFlPic=

>  <s_epik_input>  (1) 
W0NIM11bQ0BASF0oW0NAQEhdMTIpW0NAQEhdM1tDQEhdKFtDQEhdKFtDQEBIXShbQ0gyXTEpW09IXSlbQ0gyXVtDSDJdMilbQ0BIXTNbQ0BIXShbQ0gzXSlbQ0gyXVtDQEBIXTRbQ0gyXVtDSDJdTihbQ0gyXVtDSDJdTjRbQ0gzXSlbQ0gyXVtDQEBIXShDKD1PKVtPSF0pQyg9W0NIXUM1PU8pW0NIMl1DKEYpPVtDSF01

>  <s_glide_docking_method>  (1) 
confgen

>  <s_i_glide_gridfile>  (1) 
gpcr_drd2_6luq_protein_autoprepared_prepared

>  <s_lp_Force_Field>  (1) 
S-OPLS

>  <s_lp_Variant>  (1) 
DiffSBDD_67_num_sample_100-4

>  <s_m_source_file>  (1) 
generated__ligand_DiffSBDD_2026-05-06_prepared.sdf

>  <GenAI_Model>  (1) 
DiffSBDD

>  <Protein>  (1) 
generic_title2

$$$$
DiffSBDD_62_num_sample_100
     RDKit          3D

  0  0  0  0  0  0  0  0  0  0999 V3000
M  V30 BEGIN CTAB
M  V30 COUNTS 82 88 0 0 1
M  V30 BEGIN ATOM
M  V30 1 C 11.397845 0.661151 -20.772794 0
M  V30 2 C 11.987952 2.340633 -22.649652 0
M  V30 3 S 11.264398 0.665380 -17.972824 0
M  V30 4 C 9.530046 2.226949 -21.832287 0 CFG=2
M  V30 5 C 8.142079 4.700150 -16.319183 0
M  V30 6 C 14.106938 2.048041 -18.226631 0
M  V30 7 C 6.279722 5.521110 -11.321152 0 CFG=1
M  V30 8 O 14.130851 -0.909651 -19.974520 0
M  V30 9 C 7.091262 3.771905 -20.347017 0 CFG=2
M  V30 10 O 8.976045 2.106702 -20.515693 0
M  V30 11 F 7.577450 5.373497 -11.045073 0
M  V30 12 C 8.335209 1.783671 -17.605504 0 CFG=2
M  V30 13 C 6.316369 4.425350 -13.437499 0
M  V30 14 N 6.777800 4.902514 -18.095853 0
M  V30 15 O 9.117064 0.259715 -22.878237 0
M  V30 16 C 14.194870 0.013244 -19.165623 0
M  V30 17 C 6.989217 6.533908 -14.804226 0
M  V30 18 C 5.939200 2.753745 -20.296620 0
M  V30 19 C 14.641432 3.813507 -16.678843 0
M  V30 20 O 7.193451 4.216032 -21.688399 0
M  V30 21 C 13.503830 1.441348 -19.441141 0 CFG=1
M  V30 22 N 7.900282 4.250962 -17.585236 0
M  V30 23 C 8.570309 1.549554 -22.812012 0
M  V30 24 C 6.053432 5.908178 -13.750440 0 CFG=2
M  V30 25 C 5.175223 6.712957 -17.469213 0
M  V30 26 C 8.480658 3.290187 -19.876142 0 CFG=2
M  V30 27 C 8.589090 3.166042 -18.324400 0 CFG=2
M  V30 28 C 15.434838 1.670186 -16.291671 0
M  V30 29 S 9.260899 0.340442 -18.226337 0
M  V30 30 C 11.934439 1.414520 -19.502834 0 CFG=1
M  V30 31 O 11.541990 2.760735 -19.612000 0
M  V30 32 C 14.810760 1.210441 -17.464543 0
M  V30 33 C 6.349367 5.794486 -17.181900 0
M  V30 34 C 6.102853 6.621023 -12.380694 0
M  V30 35 C 6.762724 5.040864 -19.554149 0
M  V30 36 C 7.099358 5.719477 -16.083534 0
M  V30 37 C 10.890650 1.473914 -22.001907 0 CFG=2
M  V30 38 C 6.871749 1.357875 -17.415509 0
M  V30 39 O 9.034819 4.323078 -15.567806 0
M  V30 40 N 15.374671 2.970466 -15.891666 0
M  V30 41 C 13.990610 3.396468 -17.863915 0
M  V30 42 O 14.879773 -0.050990 -17.909872 0
M  V30 43 O 10.583558 0.500340 -22.986637 0
M  V30 44 C 5.813359 4.241421 -12.008827 0
M  V30 45 H 10.603092 -0.029861 -20.503154 0
M  V30 46 H 12.170294 -0.006724 -21.145169 0
M  V30 47 H 12.272023 3.188122 -22.027389 0
M  V30 48 H 12.887221 1.755323 -22.842815 0
M  V30 49 H 11.651150 2.743117 -23.605509 0
M  V30 50 H 9.649832 3.275948 -22.106277 0
M  V30 51 H 5.766378 5.735208 -10.382343 0
M  V30 52 H 8.723442 1.901309 -16.593214 0
M  V30 53 H 5.834859 3.753048 -14.146451 0
M  V30 54 H 7.386588 4.216551 -13.459641 0
M  V30 55 H 7.988935 6.643037 -14.383652 0
M  V30 56 H 6.649119 7.540716 -15.049403 0
M  V30 57 H 5.519689 2.673837 -19.296756 0
M  V30 58 H 5.112710 3.062653 -20.937712 0
M  V30 59 H 6.252664 1.762163 -20.620332 0
M  V30 60 H 14.582334 4.842199 -16.355358 0
M  V30 61 H 7.839714 4.904030 -21.738335 0
M  V30 62 H 13.932352 1.892711 -20.335902 0
M  V30 63 H 7.530405 1.540748 -22.491554 0
M  V30 64 H 8.628518 2.011800 -23.797618 0
M  V30 65 H 5.034842 5.979333 -14.127305 0
M  V30 66 H 4.482258 6.699292 -16.627855 0
M  V30 67 H 5.521538 7.737662 -17.604497 0
M  V30 68 H 9.177379 4.095568 -20.118843 0
M  V30 69 H 9.639114 3.360067 -18.111375 0
M  V30 70 H 16.009738 0.997597 -15.672134 0
M  V30 71 H 10.648334 2.755239 -19.927500 0
M  V30 72 H 6.906544 7.355746 -12.312193 0
M  V30 73 H 5.169831 7.159969 -12.211791 0
M  V30 74 H 7.471150 5.832733 -19.803637 0
M  V30 75 H 5.786145 5.405991 -19.870721 0
M  V30 76 H 6.234831 2.169339 -17.073350 0
M  V30 77 H 6.455274 0.941468 -18.330401 0
M  V30 78 H 6.804809 0.569113 -16.665214 0
M  V30 79 H 13.426441 4.093451 -18.465617 0
M  V30 80 H 4.725316 4.178811 -12.001920 0
M  V30 81 H 6.205869 3.343025 -11.533585 0
M  V30 82 H 4.616370 6.415591 -18.355163 0
M  V30 END ATOM
M  V30 BEGIN BOND
M  V30 1 1 10 4
M  V30 2 1 11 7
M  V30 3 2 16 8
M  V30 4 1 18 9
M  V30 5 1 9 20 CFG=3
M  V30 6 1 21 6
M  V30 7 1 21 16
M  V30 8 1 22 5
M  V30 9 1 22 14
M  V30 10 1 23 4
M  V30 11 1 23 15
M  V30 12 1 24 13
M  V30 13 1 24 17
M  V30 14 1 26 9
M  V30 15 1 26 10
M  V30 16 1 27 12
M  V30 17 1 27 22
M  V30 18 1 27 26
M  V30 19 1 29 3
M  V30 20 1 29 12
M  V30 21 1 30 1
M  V30 22 1 30 3
M  V30 23 1 30 21
M  V30 24 1 30 31 CFG=3
M  V30 25 2 32 6
M  V30 26 1 32 28
M  V30 27 1 33 14
M  V30 28 1 33 25
M  V30 29 1 34 7
M  V30 30 1 34 24
M  V30 31 1 35 9
M  V30 32 1 35 14
M  V30 33 1 36 5
M  V30 34 1 36 17
M  V30 35 2 36 33
M  V30 36 1 37 1
M  V30 37 1 37 2 CFG=3
M  V30 38 1 37 4
M  V30 39 1 38 12
M  V30 40 2 39 5
M  V30 41 1 40 19
M  V30 42 2 40 28
M  V30 43 1 41 6
M  V30 44 2 41 19
M  V30 45 1 42 16
M  V30 46 1 42 32
M  V30 47 1 43 15
M  V30 48 1 43 37
M  V30 49 1 44 7
M  V30 50 1 44 13
M  V30 51 1 45 1
M  V30 52 1 46 1
M  V30 53 1 47 2
M  V30 54 1 48 2
M  V30 55 1 49 2
M  V30 56 1 4 50 CFG=3
M  V30 57 1 7 51 CFG=1
M  V30 58 1 12 52 CFG=1
M  V30 59 1 53 13
M  V30 60 1 54 13
M  V30 61 1 55 17
M  V30 62 1 56 17
M  V30 63 1 57 18
M  V30 64 1 58 18
M  V30 65 1 59 18
M  V30 66 1 60 19
M  V30 67 1 61 20
M  V30 68 1 21 62 CFG=3
M  V30 69 1 63 23
M  V30 70 1 64 23
M  V30 71 1 24 65 CFG=3
M  V30 72 1 66 25
M  V30 73 1 67 25
M  V30 74 1 26 68 CFG=3
M  V30 75 1 27 69 CFG=3
M  V30 76 1 70 28
M  V30 77 1 71 31
M  V30 78 1 72 34
M  V30 79 1 73 34
M  V30 80 1 74 35
M  V30 81 1 75 35
M  V30 82 1 76 38
M  V30 83 1 77 38
M  V30 84 1 78 38
M  V30 85 1 79 41
M  V30 86 1 80 44
M  V30 87 1 81 44
M  V30 88 1 82 25
M  V30 END BOND
M  V30 END CTAB
M  END
>  <i_epik_Tot_Q>  (1) 
0

>  <i_epik_Tot_abs_Q>  (1) 
0

>  <i_i_glide_confnum>  (1) 
14

>  <i_i_glide_lignum>  (1) 
124

>  <i_i_glide_posenum>  (1) 
53

>  <i_i_glide_rotatable_bonds>  (1) 
5

>  <i_lp_mmshare_version>  (1) 
72125

>  <i_m_source_file_index>  (1) 
63

>  <i_f3d_flags>  (1) 
0

>  <num_sample>  (1) 
100

>  <b_lp_Chiralities_Consistent>  (1) 
1

>  <r_epik_Charging_Adjusted_Penalty>  (1) 
9.3393148110690276e-05

>  <r_epik_Ionization_Penalty>  (1) 
0.00038220122724724384

>  <r_epik_Ionization_Penalty_Charging>  (1) 
9.3393148110690276e-05

>  <r_epik_Ionization_Penalty_Neutral>  (1) 
0.00028880807913655358

>  <r_epik_State_Penalty>  (1) 
-0

>  <r_glide_ring_energy>  (1) 
0.37419102559369977

>  <r_i_docking_score>  (1) 
-4.1621995229668549

>  <r_i_glide_ecoul>  (1) 
0.35600093600611554

>  <r_i_glide_eff_state_penalty>  (1) 
-0

>  <r_i_glide_einternal>  (1) 
2.1222317414991974

>  <r_i_glide_emodel>  (1) 
-41.565644650153814

>  <r_i_glide_emodel_strain>  (1) 
0.45524348783973778

>  <r_i_glide_energy>  (1) 
-34.657226701205254

>  <r_i_glide_erotb>  (1) 
0.15000188296614175

>  <r_i_glide_esite>  (1) 
-0.07057473759157204

>  <r_i_glide_evdw>  (1) 
-35.013227637211372

>  <r_i_glide_gscore>  (1) 
-4.1621995229668549

>  <r_i_glide_gscore_strain>  (1) 
0

>  <r_i_glide_hbond>  (1) 
0

>  <r_i_glide_ligand_efficiency>  (1) 
-0.094595443703792151

>  <r_i_glide_ligand_efficiency_ln>  (1) 
-0.86999049817304264

>  <r_i_glide_ligand_efficiency_sa>  (1) 
-0.33395486720911299

>  <r_i_glide_lipo>  (1) 
-1.8926323666455045

>  <r_i_glide_metal>  (1) 
-0

>  <r_i_glide_rewards>  (1) 
-0.65173306023626854

>  <r_lp_Energy>  (1) 
36.201265999999997

>  <r_lp_tautomer_probability>  (1) 
1

>  <s_epik_cmdline>  (1) 
J2VwaWtfcHl0aG9uJywgJy1waHQnLCAnMS4wJywgJy1waCcsICc3LjQnLCAnLXRuJywgJzgnLCAnLW1hJywgJzUwMCcsICctaW1hZScsICc8aW5maWxlLm1hZT4nLCAnLW9tYWUnLCAnPG91dGZpbGUubWFlPic=

>  <s_epik_input>  (1) 
W2NIXTFbY0hdbltjSF1jKGMxMilPQyg9TylbQ0BIXTJbQ0BdKFtDSDJdMykoW09IXSlTU1tDQEhdKFtDSDNdKVtDQEBIXShbQ0BIXTRPW0NASF0oW0NIMl1PTzUpW0NAQF0zNVtDSDNdKU42TihbQ0gyXVtDQEBdNChbQ0gzXSlbT0hdKUMoPVtDSDJdKVtDQEhdKEM2PU8pW0NIMl1bQ0BASF0oW0NIMl1bQ0gyXTcpW0NIMl1bQ0BASF03Rg==

>  <s_glide_docking_method>  (1) 
confgen

>  <s_i_glide_gridfile>  (1) 
gpcr_drd2_6luq_protein_autoprepared_prepared

>  <s_lp_Force_Field>  (1) 
S-OPLS

>  <s_lp_Variant>  (1) 
DiffSBDD_62_num_sample_100-1

>  <s_m_source_file>  (1) 
generated__ligand_DiffSBDD_2026-05-06_prepared.sdf

>  <GenAI_Model>  (1) 
DiffSBDD

>  <Protein>  (1) 
generic_title2

$$$$
DiffSBDD_62_num_sample_100
     RDKit          3D

  0  0  0  0  0  0  0  0  0  0999 V3000
M  V30 BEGIN CTAB
M  V30 COUNTS 82 88 0 0 1
M  V30 BEGIN ATOM
M  V30 1 C 11.410565 0.819379 -20.755358 0
M  V30 2 C 11.864665 2.539006 -22.640800 0
M  V30 3 S 11.289502 0.858313 -17.955161 0
M  V30 4 C 9.418872 2.216794 -21.840421 0 CFG=2
M  V30 5 C 8.127707 4.742497 -16.340190 0
M  V30 6 C 14.110608 2.261824 -18.235560 0
M  V30 7 C 6.319764 5.553124 -11.330530 0 CFG=1
M  V30 8 O 14.119242 -0.736656 -19.916765 0
M  V30 9 C 7.003551 3.791988 -20.339092 0 CFG=2
M  V30 10 O 8.827662 2.090516 -20.541297 0
M  V30 11 F 7.624479 5.415318 -11.084812 0
M  V30 12 C 8.332678 1.831339 -17.607861 0 CFG=2
M  V30 13 C 6.324620 4.457393 -13.445880 0
M  V30 14 N 6.744394 4.941246 -18.101299 0
M  V30 15 O 9.199963 0.199084 -22.852171 0
M  V30 16 C 14.196576 0.206653 -19.133445 0
M  V30 17 C 6.984864 6.571861 -14.812958 0
M  V30 18 C 5.838939 2.790993 -20.252985 0
M  V30 19 C 14.634843 4.055267 -16.714677 0
M  V30 20 O 7.074304 4.218996 -21.685078 0
M  V30 21 C 13.509275 1.631189 -19.439460 0 CFG=1
M  V30 22 N 7.871111 4.290706 -17.602338 0
M  V30 23 C 8.528829 1.428391 -22.803845 0
M  V30 24 C 6.056589 5.941296 -13.754767 0 CFG=2
M  V30 25 C 5.144747 6.748459 -17.460404 0
M  V30 26 C 8.399451 3.297122 -19.898212 0 CFG=2
M  V30 27 C 8.551364 3.204512 -18.348247 0 CFG=2
M  V30 28 C 15.434837 1.921657 -16.291667 0
M  V30 29 S 9.311066 0.417343 -18.202623 0
M  V30 30 C 11.938555 1.600454 -19.499233 0 CFG=1
M  V30 31 O 11.553107 2.950922 -19.614648 0
M  V30 32 C 14.816270 1.439922 -17.458147 0
M  V30 33 C 6.324117 5.833333 -17.184358 0
M  V30 34 C 6.114796 6.652759 -12.384600 0
M  V30 35 C 6.714340 5.075408 -19.558564 0
M  V30 36 C 7.085125 5.759802 -16.093624 0
M  V30 37 C 10.843438 1.589352 -21.983300 0 CFG=2
M  V30 38 C 6.882249 1.368590 -17.425016 0
M  V30 39 O 9.031612 4.368785 -15.599163 0
M  V30 40 N 15.362885 3.226564 -15.909363 0
M  V30 41 C 13.990125 3.617214 -17.896296 0
M  V30 42 O 14.891821 0.170855 -17.881868 0
M  V30 43 O 10.633439 0.585671 -22.964636 0
M  V30 44 C 5.841598 4.272768 -12.010201 0
M  V30 45 H 10.666067 0.081259 -20.469479 0
M  V30 46 H 12.214276 0.199349 -21.144039 0
M  V30 47 H 12.055938 3.427050 -22.040712 0
M  V30 48 H 12.818322 2.037458 -22.806436 0
M  V30 49 H 11.505393 2.883126 -23.611118 0
M  V30 50 H 9.444970 3.258443 -22.161809 0
M  V30 51 H 5.826866 5.763878 -10.380051 0
M  V30 52 H 8.710484 1.971085 -16.594999 0
M  V30 53 H 5.834816 3.782385 -14.147080 0
M  V30 54 H 7.394584 4.249041 -13.482267 0
M  V30 55 H 7.987532 6.679150 -14.399524 0
M  V30 56 H 6.642677 7.579189 -15.053481 0
M  V30 57 H 5.467849 2.693879 -19.235891 0
M  V30 58 H 4.987148 3.129608 -20.843334 0
M  V30 59 H 6.118375 1.802644 -20.616646 0
M  V30 60 H 14.573421 5.089375 -16.409374 0
M  V30 61 H 7.216528 3.460212 -22.228781 0
M  V30 62 H 13.938301 2.063243 -20.343571 0
M  V30 63 H 7.496632 1.318566 -22.472928 0
M  V30 64 H 8.535932 1.875304 -23.798528 0
M  V30 65 H 5.034839 6.010953 -14.124010 0
M  V30 66 H 4.480419 6.765983 -16.596603 0
M  V30 67 H 5.489313 7.766459 -17.642618 0
M  V30 68 H 9.105381 4.083002 -20.176506 0
M  V30 69 H 9.601517 3.416301 -18.164934 0
M  V30 70 H 16.010639 1.261862 -15.659234 0
M  V30 71 H 11.541855 3.321836 -18.744847 0
M  V30 72 H 6.909505 7.397717 -12.325548 0
M  V30 73 H 5.177278 7.179162 -12.201472 0
M  V30 74 H 7.440403 5.844703 -19.827195 0
M  V30 75 H 5.743738 5.462648 -19.866742 0
M  V30 76 H 6.234839 2.169301 -17.078558 0
M  V30 77 H 6.477520 0.951325 -18.345011 0
M  V30 78 H 6.829767 0.575967 -16.677955 0
M  V30 79 H 13.430744 4.304574 -18.512575 0
M  V30 80 H 4.753697 4.215434 -11.988032 0
M  V30 81 H 6.234839 3.370136 -11.542000 0
M  V30 82 H 4.555565 6.422753 -18.316353 0
M  V30 END ATOM
M  V30 BEGIN BOND
M  V30 1 1 10 4
M  V30 2 1 11 7
M  V30 3 2 16 8
M  V30 4 1 18 9
M  V30 5 1 9 20 CFG=3
M  V30 6 1 21 6
M  V30 7 1 21 16
M  V30 8 1 22 5
M  V30 9 1 22 14
M  V30 10 1 23 4
M  V30 11 1 23 15
M  V30 12 1 24 13
M  V30 13 1 24 17
M  V30 14 1 26 9
M  V30 15 1 26 10
M  V30 16 1 27 12
M  V30 17 1 27 22
M  V30 18 1 27 26
M  V30 19 1 29 3
M  V30 20 1 29 12
M  V30 21 1 30 1
M  V30 22 1 30 3
M  V30 23 1 30 21
M  V30 24 1 30 31 CFG=3
M  V30 25 2 32 6
M  V30 26 1 32 28
M  V30 27 1 33 14
M  V30 28 1 33 25
M  V30 29 1 34 7
M  V30 30 1 34 24
M  V30 31 1 35 9
M  V30 32 1 35 14
M  V30 33 1 36 5
M  V30 34 1 36 17
M  V30 35 2 36 33
M  V30 36 1 37 1
M  V30 37 1 37 2 CFG=3
M  V30 38 1 37 4
M  V30 39 1 38 12
M  V30 40 2 39 5
M  V30 41 1 40 19
M  V30 42 2 40 28
M  V30 43 1 41 6
M  V30 44 2 41 19
M  V30 45 1 42 16
M  V30 46 1 42 32
M  V30 47 1 43 15
M  V30 48 1 43 37
M  V30 49 1 44 7
M  V30 50 1 44 13
M  V30 51 1 45 1
M  V30 52 1 46 1
M  V30 53 1 47 2
M  V30 54 1 48 2
M  V30 55 1 49 2
M  V30 56 1 4 50 CFG=3
M  V30 57 1 7 51 CFG=1
M  V30 58 1 12 52 CFG=1
M  V30 59 1 53 13
M  V30 60 1 54 13
M  V30 61 1 55 17
M  V30 62 1 56 17
M  V30 63 1 57 18
M  V30 64 1 58 18
M  V30 65 1 59 18
M  V30 66 1 60 19
M  V30 67 1 61 20
M  V30 68 1 21 62 CFG=3
M  V30 69 1 63 23
M  V30 70 1 64 23
M  V30 71 1 24 65 CFG=3
M  V30 72 1 66 25
M  V30 73 1 67 25
M  V30 74 1 26 68 CFG=3
M  V30 75 1 27 69 CFG=3
M  V30 76 1 70 28
M  V30 77 1 71 31
M  V30 78 1 72 34
M  V30 79 1 73 34
M  V30 80 1 74 35
M  V30 81 1 75 35
M  V30 82 1 76 38
M  V30 83 1 77 38
M  V30 84 1 78 38
M  V30 85 1 79 41
M  V30 86 1 80 44
M  V30 87 1 81 44
M  V30 88 1 82 25
M  V30 END BOND
M  V30 END CTAB
M  END
>  <i_epik_Tot_Q>  (1) 
0

>  <i_epik_Tot_abs_Q>  (1) 
0

>  <i_i_glide_confnum>  (1) 
13

>  <i_i_glide_lignum>  (1) 
124

>  <i_i_glide_posenum>  (1) 
342

>  <i_i_glide_rotatable_bonds>  (1) 
5

>  <i_lp_mmshare_version>  (1) 
72125

>  <i_m_source_file_index>  (1) 
63

>  <i_f3d_flags>  (1) 
0

>  <num_sample>  (1) 
100

>  <b_lp_Chiralities_Consistent>  (1) 
1

>  <r_epik_Charging_Adjusted_Penalty>  (1) 
9.3393148110690276e-05

>  <r_epik_Ionization_Penalty>  (1) 
0.00038220122724724384

>  <r_epik_Ionization_Penalty_Charging>  (1) 
9.3393148110690276e-05

>  <r_epik_Ionization_Penalty_Neutral>  (1) 
0.00028880807913655358

>  <r_epik_State_Penalty>  (1) 
-0

>  <r_glide_ring_energy>  (1) 
0.37419102559369977

>  <r_i_docking_score>  (1) 
-4.1580916846429883

>  <r_i_glide_ecoul>  (1) 
-0.077104721545726673

>  <r_i_glide_eff_state_penalty>  (1) 
-0

>  <r_i_glide_einternal>  (1) 
3.134023262191171

>  <r_i_glide_emodel>  (1) 
-41.894525496468944

>  <r_i_glide_emodel_strain>  (1) 
0.018642871042203524

>  <r_i_glide_energy>  (1) 
-35.063717434968787

>  <r_i_glide_erotb>  (1) 
0.15000188296614175

>  <r_i_glide_esite>  (1) 
-0.069185210626912311

>  <r_i_glide_evdw>  (1) 
-34.986612713423057

>  <r_i_glide_gscore>  (1) 
-4.1580916846429883

>  <r_i_glide_gscore_strain>  (1) 
0

>  <r_i_glide_hbond>  (1) 
0

>  <r_i_glide_ligand_efficiency>  (1) 
-0.094502083741886095

>  <r_i_glide_ligand_efficiency_ln>  (1) 
-0.86913187035136452

>  <r_i_glide_ligand_efficiency_sa>  (1) 
-0.33362527402301184

>  <r_i_glide_lipo>  (1) 
-1.8388622413327362

>  <r_i_glide_metal>  (1) 
-0

>  <r_i_glide_rewards>  (1) 
-0.63914977174646859

>  <r_lp_Energy>  (1) 
36.201265999999997

>  <r_lp_tautomer_probability>  (1) 
1

>  <s_epik_cmdline>  (1) 
J2VwaWtfcHl0aG9uJywgJy1waHQnLCAnMS4wJywgJy1waCcsICc3LjQnLCAnLXRuJywgJzgnLCAnLW1hJywgJzUwMCcsICctaW1hZScsICc8aW5maWxlLm1hZT4nLCAnLW9tYWUnLCAnPG91dGZpbGUubWFlPic=

>  <s_epik_input>  (1) 
W2NIXTFbY0hdbltjSF1jKGMxMilPQyg9TylbQ0BIXTJbQ0BdKFtDSDJdMykoW09IXSlTU1tDQEhdKFtDSDNdKVtDQEBIXShbQ0BIXTRPW0NASF0oW0NIMl1PTzUpW0NAQF0zNVtDSDNdKU42TihbQ0gyXVtDQEBdNChbQ0gzXSlbT0hdKUMoPVtDSDJdKVtDQEhdKEM2PU8pW0NIMl1bQ0BASF0oW0NIMl1bQ0gyXTcpW0NIMl1bQ0BASF03Rg==

>  <s_glide_docking_method>  (1) 
confgen

>  <s_i_glide_gridfile>  (1) 
gpcr_drd2_6luq_protein_autoprepared_prepared

>  <s_lp_Force_Field>  (1) 
S-OPLS

>  <s_lp_Variant>  (1) 
DiffSBDD_62_num_sample_100-1

>  <s_m_source_file>  (1) 
generated__ligand_DiffSBDD_2026-05-06_prepared.sdf

>  <GenAI_Model>  (1) 
DiffSBDD

>  <Protein>  (1) 
generic_title2

$$$$
DiffSBDD_66_num_sample_100
     RDKit          3D

  0  0  0  0  0  0  0  0  0  0999 V3000
M  V30 BEGIN CTAB
M  V30 COUNTS 88 91 0 0 1
M  V30 BEGIN ATOM
M  V30 1 C 11.319508 4.635889 -16.817469 0
M  V30 2 F 9.536619 5.123601 -8.401162 0
M  V30 3 C 8.883679 5.310615 -17.104940 0 CFG=1
M  V30 4 N 9.531644 3.073581 -18.992825 0
M  V30 5 C 10.397319 0.816023 -19.146079 0
M  V30 6 F 7.890031 6.215389 -19.039171 0
M  V30 7 O 9.434820 8.969282 -9.071470 0
M  V30 8 N 12.398094 2.071313 -18.589029 0
M  V30 9 O 7.849960 4.569408 -9.766223 0
M  V30 10 C 9.157976 4.296128 -19.555395 0
M  V30 11 O 12.282646 -0.082380 -18.019567 0
M  V30 12 C 7.443215 5.303531 -16.522487 0
M  V30 13 C 13.628634 0.415358 -17.728504 0
M  V30 14 C 7.399097 4.993688 -15.036585 0
M  V30 15 O 8.284585 -0.464523 -19.410821 0
M  V30 16 C 9.781607 1.970121 -19.832267 0
M  V30 17 O 9.028999 4.469052 -20.771040 0
M  V30 18 C 9.682060 -0.537024 -19.190379 0
M  V30 19 C 6.797893 3.642194 -14.654681 0
M  V30 20 C 10.195433 8.042041 -8.865176 0
M  V30 21 C 13.702416 1.952564 -18.049765 0
M  V30 22 O 7.105113 0.610323 -15.737697 0
M  V30 23 C 9.252757 6.123644 -12.043518 0
M  V30 24 C 11.370514 8.405677 -5.347426 0
M  V30 25 C 9.196472 4.970490 -9.704154 0 CFG=1
M  V30 26 O 9.523682 1.973192 -21.038010 0
M  V30 27 C 9.841038 4.206383 -16.697053 0 CFG=1
M  V30 28 N 10.698521 7.766475 -7.649015 0
M  V30 29 C 6.643512 6.335681 -11.983541 0 CFG=2
M  V30 30 C 8.242580 2.198128 -17.035824 0
M  V30 31 C 7.769087 2.498757 -14.368322 0 CFG=1
M  V30 32 O 5.773933 7.002491 -12.914418 0
M  V30 33 C 7.282231 1.667813 -13.160312 0
M  V30 34 C 7.853016 5.878447 -14.125472 0
M  V30 35 C 9.383274 6.279834 -10.504174 0 CFG=1
M  V30 36 C 9.555797 2.913603 -17.476556 0 CFG=1
M  V30 37 C 8.938877 5.504578 -18.615338 0 CFG=2
M  V30 38 C 11.637401 0.959731 -18.600277 0
M  V30 39 C 10.331588 8.536109 -6.461309 0
M  V30 40 C 6.414281 7.822447 -11.934504 0
M  V30 41 C 7.866169 5.662504 -12.616906 0 CFG=1
M  V30 42 C 8.117452 1.592699 -15.604958 0 CFG=1
M  V30 43 C 10.602881 7.127403 -10.015685 0
M  V30 44 H 11.623183 4.794766 -17.852525 0
M  V30 45 H 11.512190 5.561980 -16.274962 0
M  V30 46 H 11.980771 3.880653 -16.391945 0
M  V30 47 H 9.346052 6.169268 -16.645354 0
M  V30 48 H 12.119599 2.919891 -19.060118 0
M  V30 49 H 7.798993 3.772055 -10.267306 0
M  V30 50 H 7.035212 6.309264 -16.630436 0
M  V30 51 H 6.748247 4.699582 -17.098774 0
M  V30 52 H 13.893507 0.223520 -16.691027 0
M  V30 53 H 14.340702 -0.129552 -18.347658 0
M  V30 54 H 7.845789 -0.314075 -18.585722 0
M  V30 55 H 9.864894 -1.089322 -18.268380 0
M  V30 56 H 10.118429 -1.112525 -20.005585 0
M  V30 57 H 6.089258 3.793385 -13.839734 0
M  V30 58 H 6.234839 3.293681 -15.491336 0
M  V30 59 H 13.817830 2.560647 -17.153871 0
M  V30 60 H 14.476831 2.197309 -18.778245 0
M  V30 61 H 7.059741 0.106366 -14.938350 0
M  V30 62 H 10.036523 5.459998 -12.410224 0
M  V30 63 H 9.472323 7.100231 -12.473632 0
M  V30 64 H 11.035149 8.912982 -4.442350 0
M  V30 65 H 11.564337 7.361957 -5.094814 0
M  V30 66 H 12.301427 8.885794 -5.643477 0
M  V30 67 H 9.819365 4.185168 -10.128885 0
M  V30 68 H 9.699527 4.061055 -15.636399 0
M  V30 69 H 11.319353 6.979372 -7.534613 0
M  V30 70 H 6.112603 5.745948 -11.239505 0
M  V30 71 H 8.159059 1.338162 -17.689938 0
M  V30 72 H 7.358962 2.756467 -17.314890 0
M  V30 73 H 8.636027 3.003938 -13.992169 0
M  V30 74 H 6.325781 1.180152 -13.353449 0
M  V30 75 H 8.008052 0.903156 -12.882853 0
M  V30 76 H 7.129440 2.309389 -12.293257 0
M  V30 77 H 8.234830 6.822480 -14.467369 0
M  V30 78 H 8.537182 6.905646 -10.291381 0
M  V30 79 H 10.328247 2.263117 -17.093099 0
M  V30 80 H 9.787414 6.159578 -18.821451 0
M  V30 81 H 10.234963 9.594434 -6.690834 0
M  V30 82 H 9.352925 8.193230 -6.118579 0
M  V30 83 H 5.708449 8.266164 -11.235567 0
M  V30 84 H 7.219463 8.460279 -12.291470 0
M  V30 85 H 7.772994 4.598855 -12.412965 0
M  V30 86 H 9.030634 1.047649 -15.389503 0
M  V30 87 H 11.457554 6.569418 -9.667566 0
M  V30 88 H 10.968448 7.769015 -10.818466 0
M  V30 END ATOM
M  V30 BEGIN BOND
M  V30 1 1 10 4
M  V30 2 1 12 3
M  V30 3 1 13 11
M  V30 4 1 14 12
M  V30 5 1 16 4
M  V30 6 1 16 5
M  V30 7 2 17 10
M  V30 8 1 18 5
M  V30 9 1 18 15
M  V30 10 1 19 14
M  V30 11 2 20 7
M  V30 12 1 21 8
M  V30 13 1 21 13
M  V30 14 1 25 2
M  V30 15 1 25 9
M  V30 16 2 26 16
M  V30 17 1 27 1
M  V30 18 1 27 3
M  V30 19 1 28 20
M  V30 20 1 31 19
M  V30 21 1 32 29
M  V30 22 1 33 31
M  V30 23 2 34 14
M  V30 24 1 35 23
M  V30 25 1 35 25
M  V30 26 1 36 4
M  V30 27 1 36 27
M  V30 28 1 36 30
M  V30 29 1 37 3
M  V30 30 1 37 6
M  V30 31 1 37 10
M  V30 32 2 38 5
M  V30 33 1 38 8
M  V30 34 1 38 11
M  V30 35 1 39 24
M  V30 36 1 39 28
M  V30 37 1 40 29
M  V30 38 1 40 32
M  V30 39 1 41 23
M  V30 40 1 41 29
M  V30 41 1 41 34
M  V30 42 1 42 22
M  V30 43 1 42 30
M  V30 44 1 42 31
M  V30 45 1 43 20
M  V30 46 1 43 35
M  V30 47 1 44 1
M  V30 48 1 45 1
M  V30 49 1 46 1
M  V30 50 1 3 47 CFG=1
M  V30 51 1 48 8
M  V30 52 1 49 9
M  V30 53 1 50 12
M  V30 54 1 51 12
M  V30 55 1 52 13
M  V30 56 1 53 13
M  V30 57 1 54 15
M  V30 58 1 55 18
M  V30 59 1 56 18
M  V30 60 1 57 19
M  V30 61 1 58 19
M  V30 62 1 59 21
M  V30 63 1 60 21
M  V30 64 1 61 22
M  V30 65 1 62 23
M  V30 66 1 63 23
M  V30 67 1 64 24
M  V30 68 1 65 24
M  V30 69 1 66 24
M  V30 70 1 25 67 CFG=3
M  V30 71 1 27 68 CFG=1
M  V30 72 1 69 28
M  V30 73 1 29 70 CFG=1
M  V30 74 1 71 30
M  V30 75 1 72 30
M  V30 76 1 31 73 CFG=1
M  V30 77 1 74 33
M  V30 78 1 75 33
M  V30 79 1 76 33
M  V30 80 1 77 34
M  V30 81 1 35 78 CFG=1
M  V30 82 1 36 79 CFG=3
M  V30 83 1 37 80 CFG=1
M  V30 84 1 81 39
M  V30 85 1 82 39
M  V30 86 1 83 40
M  V30 87 1 84 40
M  V30 88 1 41 85 CFG=3
M  V30 89 1 42 86 CFG=1
M  V30 90 1 87 43
M  V30 91 1 88 43
M  V30 END BOND
M  V30 END CTAB
M  END
>  <i_epik_Tot_Q>  (1) 
0

>  <i_epik_Tot_abs_Q>  (1) 
0

>  <i_i_glide_confnum>  (1) 
2076

>  <i_i_glide_lignum>  (1) 
131

>  <i_i_glide_posenum>  (1) 
147

>  <i_i_glide_rotatable_bonds>  (1) 
15

>  <i_lp_mmshare_version>  (1) 
72125

>  <i_m_source_file_index>  (1) 
67

>  <i_f3d_flags>  (1) 
0

>  <num_sample>  (1) 
100

>  <b_lp_Chiralities_Consistent>  (1) 
1

>  <r_epik_Charging_Adjusted_Penalty>  (1) 
0.011224841026204068

>  <r_epik_Ionization_Penalty>  (1) 
0.011270599783865109

>  <r_epik_Ionization_Penalty_Charging>  (1) 
8.5422756824624084e-11

>  <r_epik_Ionization_Penalty_Neutral>  (1) 
0.011270599698442352

>  <r_epik_State_Penalty>  (1) 
0.01122484094078131

>  <r_glide_ring_energy>  (1) 
0

>  <r_i_docking_score>  (1) 
-4.1497933450117674

>  <r_i_glide_ecoul>  (1) 
0.12688317336794652

>  <r_i_glide_eff_state_penalty>  (1) 
0.01122484094078131

>  <r_i_glide_einternal>  (1) 
16.709390870089479

>  <r_i_glide_emodel>  (1) 
-32.015969814194797

>  <r_i_glide_emodel_strain>  (1) 
1.0370499998134051

>  <r_i_glide_energy>  (1) 
-31.869581298761375

>  <r_i_glide_erotb>  (1) 
0.43215163049877869

>  <r_i_glide_esite>  (1) 
-0.06451247534604064

>  <r_i_glide_evdw>  (1) 
-31.996464472129322

>  <r_i_glide_gscore>  (1) 
-4.1610181859525488

>  <r_i_glide_gscore_strain>  (1) 
0

>  <r_i_glide_hbond>  (1) 
0

>  <r_i_glide_ligand_efficiency>  (1) 
-0.096506821977017848

>  <r_i_glide_ligand_efficiency_ln>  (1) 
-0.87158557594197417

>  <r_i_glide_ligand_efficiency_sa>  (1) 
-0.33810181292837127

>  <r_i_glide_lipo>  (1) 
-2.3109911913090513

>  <r_i_glide_metal>  (1) 
-0

>  <r_i_glide_rewards>  (1) 
-0.63687540219496164

>  <r_lp_Energy>  (1) 
48.107619999999997

>  <r_lp_tautomer_probability>  (1) 
0.49997499999946832

>  <s_epik_Chemistry_Notes>  (1) 
This compound has an imine and may undergo hydrolysis.

>  <s_epik_cmdline>  (1) 
J2VwaWtfcHl0aG9uJywgJy1waHQnLCAnMS4wJywgJy1waCcsICc3LjQnLCAnLXRuJywgJzgnLCAnLW1hJywgJzUwMCcsICctaW1hZScsICc8aW5maWxlLm1hZT4nLCAnLW9tYWUnLCAnPG91dGZpbGUubWFlPic=

>  <s_epik_input>  (1) 
TzFbQ0gyXVtDSDJdTj1DMVtDQEhdKFtDSDJdW09IXSlDKD1PKU4oQyg9TylbQ0BIXTJGKVtDQEBIXShbQ0BASF0zW0NIM10pW0NIMl1bQ0BIXShbT0hdKVtDQEhdKFtDSDNdKVtDSDJdQyhcW0NIMl1bQ0BIXTIzKT1bQ0hdL1tDQEhdKFtDQEBIXTRPW0NIMl00KVtDSDJdW0NAQEhdKFtDQEBIXShGKVtPSF0pW0NIMl1DKD1PKVtOSF1bQ0gyXVtDSDNd

>  <s_glide_docking_method>  (1) 
confgen

>  <s_i_glide_gridfile>  (1) 
gpcr_drd2_6luq_protein_autoprepared_prepared

>  <s_lp_Force_Field>  (1) 
S-OPLS

>  <s_lp_Variant>  (1) 
DiffSBDD_66_num_sample_100-3

>  <s_m_source_file>  (1) 
generated__ligand_DiffSBDD_2026-05-06_prepared.sdf

>  <GenAI_Model>  (1) 
DiffSBDD

>  <Protein>  (1) 
generic_title2

$$$$
DiffSBDD_45_num_sample_100
     RDKit          3D

  0  0  0  0  0  0  0  0  0  0999 V3000
M  V30 BEGIN CTAB
M  V30 COUNTS 63 65 0 0 1
M  V30 BEGIN ATOM
M  V30 1 C 5.585758 0.725833 -13.860395 0
M  V30 2 C 9.836833 8.064987 -9.196987 0
M  V30 3 C 6.802953 -0.100791 -14.300443 0
M  V30 4 C 11.434666 7.778956 -5.762134 0 CFG=1
M  V30 5 C 10.376763 7.999443 -6.849114 0 CFG=1
M  V30 6 C 12.862008 9.743579 -6.305864 0
M  V30 7 C 6.335204 4.927576 -12.203947 0
M  V30 8 C 7.023343 2.493834 -12.800415 0 CFG=1
M  V30 9 O 5.434567 4.492790 -11.491941 0
M  V30 10 N 10.907543 7.946632 -8.229820 0
M  V30 11 Cl 9.312640 6.569320 -6.694630 0
M  V30 12 C 8.911226 6.554449 -12.650751 0 CFG=1
M  V30 13 C 7.311486 6.386281 -14.860808 0
M  V30 14 C 8.112003 0.446896 -13.766813 0
M  V30 15 C 8.828927 7.161535 -11.247683 0
M  V30 16 N 12.089852 9.005742 -5.309430 0
M  V30 17 C 9.480537 5.119964 -12.648301 0
M  V30 18 C 10.152678 7.480237 -10.561572 0
M  V30 19 C 8.208855 1.597969 -13.091666 0
M  V30 20 C 11.921455 8.956575 -8.549733 0
M  V30 21 C 7.530036 6.750374 -13.369340 0 CFG=1
M  V30 22 C 7.426336 3.971285 -12.736894 0 CFG=2
M  V30 23 F 10.932810 7.196841 -4.691728 0
M  V30 24 O 8.624360 4.182930 -12.006772 0
M  V30 25 C 5.910757 2.223314 -13.806902 0
M  V30 26 C 13.129603 8.959728 -7.620258 0
M  V30 27 N 6.428242 6.236446 -12.550352 0
M  V30 28 C 5.449418 7.225318 -12.088519 0
M  V30 29 H 5.275672 0.390978 -12.869303 0
M  V30 30 H 4.741282 0.530651 -14.519141 0
M  V30 31 H 9.479111 9.093108 -9.274176 0
M  V30 32 H 8.992867 7.496227 -8.852137 0
M  V30 33 H 6.851470 -0.173183 -15.385947 0
M  V30 34 H 6.673296 -1.098150 -13.898787 0
M  V30 35 H 12.117348 7.018104 -6.130984 0
M  V30 36 H 9.766461 8.888079 -6.670526 0
M  V30 37 H 13.814038 10.035389 -5.865029 0
M  V30 38 H 12.342911 10.677737 -6.531677 0
M  V30 39 H 6.564770 2.190664 -11.891986 0
M  V30 40 H 9.669714 7.173749 -13.091647 0
M  V30 41 H 7.925238 6.969328 -15.491662 0
M  V30 42 H 7.530775 5.386498 -15.208110 0
M  V30 43 H 6.294689 6.626433 -15.166030 0
M  V30 44 H 8.998192 -0.144290 -13.946330 0
M  V30 45 H 8.285981 8.104973 -11.303288 0
M  V30 46 H 8.236220 6.506508 -10.610873 0
M  V30 47 H 11.410065 9.616956 -4.873541 0
M  V30 48 H 10.435204 5.098613 -12.127279 0
M  V30 49 H 9.709658 4.806299 -13.669258 0
M  V30 50 H 10.724275 6.569896 -10.430189 0
M  V30 51 H 10.756775 8.169226 -11.144967 0
M  V30 52 H 9.171141 1.926185 -12.728934 0
M  V30 53 H 12.309231 8.756000 -9.550440 0
M  V30 54 H 11.484504 9.949899 -8.623398 0
M  V30 55 H 7.412615 7.835686 -13.379908 0
M  V30 56 H 7.632542 4.124850 -13.774877 0
M  V30 57 H 5.023134 2.777042 -13.491657 0
M  V30 58 H 6.236181 2.573165 -14.789903 0
M  V30 59 H 13.434733 7.929461 -7.491568 0
M  V30 60 H 13.991767 9.369283 -8.140201 0
M  V30 61 H 4.654518 6.829984 -11.458147 0
M  V30 62 H 5.943982 7.998705 -11.502460 0
M  V30 63 H 5.007446 7.710870 -12.957369 0
M  V30 END ATOM
M  V30 BEGIN BOND
M  V30 1 1 3 1
M  V30 2 1 5 4
M  V30 3 2 9 7
M  V30 4 1 10 2
M  V30 5 1 10 5
M  V30 6 1 11 5
M  V30 7 1 14 3
M  V30 8 1 15 12
M  V30 9 1 16 4
M  V30 10 1 16 6
M  V30 11 1 17 12
M  V30 12 1 18 2
M  V30 13 1 18 15
M  V30 14 1 19 8
M  V30 15 2 19 14
M  V30 16 1 20 10
M  V30 17 1 21 12
M  V30 18 1 21 13
M  V30 19 1 22 7
M  V30 20 1 22 8
M  V30 21 1 23 4
M  V30 22 1 24 17
M  V30 23 1 24 22
M  V30 24 1 25 1
M  V30 25 1 25 8
M  V30 26 1 26 6
M  V30 27 1 26 20
M  V30 28 1 27 7
M  V30 29 1 27 21
M  V30 30 1 28 27
M  V30 31 1 29 1
M  V30 32 1 30 1
M  V30 33 1 31 2
M  V30 34 1 32 2
M  V30 35 1 33 3
M  V30 36 1 34 3
M  V30 37 1 4 35 CFG=3
M  V30 38 1 5 36 CFG=1
M  V30 39 1 37 6
M  V30 40 1 38 6
M  V30 41 1 8 39 CFG=1
M  V30 42 1 12 40 CFG=3
M  V30 43 1 41 13
M  V30 44 1 42 13
M  V30 45 1 43 13
M  V30 46 1 44 14
M  V30 47 1 45 15
M  V30 48 1 46 15
M  V30 49 1 47 16
M  V30 50 1 48 17
M  V30 51 1 49 17
M  V30 52 1 50 18
M  V30 53 1 51 18
M  V30 54 1 52 19
M  V30 55 1 53 20
M  V30 56 1 54 20
M  V30 57 1 21 55 CFG=3
M  V30 58 1 22 56 CFG=3
M  V30 59 1 57 25
M  V30 60 1 58 25
M  V30 61 1 59 26
M  V30 62 1 60 26
M  V30 63 1 61 28
M  V30 64 1 62 28
M  V30 65 1 63 28
M  V30 END BOND
M  V30 END CTAB
M  END
>  <i_epik_Tot_Q>  (1) 
0

>  <i_epik_Tot_abs_Q>  (1) 
0

>  <i_i_glide_confnum>  (1) 
415

>  <i_i_glide_lignum>  (1) 
82

>  <i_i_glide_posenum>  (1) 
168

>  <i_i_glide_rotatable_bonds>  (1) 
5

>  <i_lp_mmshare_version>  (1) 
72125

>  <i_m_source_file_index>  (1) 
46

>  <i_f3d_flags>  (1) 
0

>  <num_sample>  (1) 
100

>  <b_lp_Chiralities_Consistent>  (1) 
1

>  <r_epik_Charging_Adjusted_Penalty>  (1) 
0.015133208647659156

>  <r_epik_Ionization_Penalty>  (1) 
0.015206278080010002

>  <r_epik_Ionization_Penalty_Charging>  (1) 
0

>  <r_epik_Ionization_Penalty_Neutral>  (1) 
0.015206278080010002

>  <r_epik_State_Penalty>  (1) 
0.015133208647659156

>  <r_glide_ring_energy>  (1) 
1.8515707990959474

>  <r_i_docking_score>  (1) 
-4.145994459452548

>  <r_i_glide_ecoul>  (1) 
0.20681659849883471

>  <r_i_glide_eff_state_penalty>  (1) 
0.015133208647659156

>  <r_i_glide_einternal>  (1) 
2.510065351801936

>  <r_i_glide_emodel>  (1) 
-23.625567598072276

>  <r_i_glide_emodel_strain>  (1) 
0.62882750923755282

>  <r_i_glide_energy>  (1) 
-20.3657960441857

>  <r_i_glide_erotb>  (1) 
0.45657733151366331

>  <r_i_glide_esite>  (1) 
-0.029688955096880555

>  <r_i_glide_evdw>  (1) 
-20.572612642684536

>  <r_i_glide_gscore>  (1) 
-4.1611276681002067

>  <r_i_glide_gscore_strain>  (1) 
0

>  <r_i_glide_hbond>  (1) 
0

>  <r_i_glide_ligand_efficiency>  (1) 
-0.14807123069473385

>  <r_i_glide_ligand_efficiency_ln>  (1) 
-0.95701725292854989

>  <r_i_glide_ligand_efficiency_sa>  (1) 
-0.44963146617968597

>  <r_i_glide_lipo>  (1) 
-2.1365270839695687

>  <r_i_glide_metal>  (1) 
-0

>  <r_i_glide_rewards>  (1) 
-1.4538808181880198

>  <r_lp_Energy>  (1) 
30.384622

>  <s_epik_cmdline>  (1) 
J2VwaWtfcHl0aG9uJywgJy1waHQnLCAnMS4wJywgJy1waCcsICc3LjQnLCAnLXRuJywgJzgnLCAnLW1hJywgJzUwMCcsICctaW1hZScsICc8aW5maWxlLm1hZT4nLCAnLW9tYWUnLCAnPG91dGZpbGUubWFlPic=

>  <s_epik_input>  (1) 
W0NIMl0xW0NIMl1bQ0gyXVtDSF09W0NIXVtDQEhdMVtDQEBIXShDMj1PKU9bQ0gyXVtDQEBIXShbQ0BASF0oW0NIM10pTjJbQ0gzXSlbQ0gyXVtDSDJdW0NIMl1OKFtDQEBIXShDbClbQ0BASF0zRilbQ0gyXVtDSDJdW0NIMl1bTkhdMw==

>  <s_glide_docking_method>  (1) 
confgen

>  <s_i_glide_gridfile>  (1) 
gpcr_drd2_6luq_protein_autoprepared_prepared

>  <s_lp_Force_Field>  (1) 
S-OPLS

>  <s_lp_Variant>  (1) 
DiffSBDD_45_num_sample_100-1

>  <s_m_source_file>  (1) 
generated__ligand_DiffSBDD_2026-05-06_prepared.sdf

>  <GenAI_Model>  (1) 
DiffSBDD

>  <Protein>  (1) 
generic_title2

$$$$
DiffSBDD_10_num_sample_100
     RDKit          3D

  0  0  0  0  0  0  0  0  0  0999 V3000
M  V30 BEGIN CTAB
M  V30 COUNTS 72 75 0 0 1
M  V30 BEGIN ATOM
M  V30 1 Cl 6.452239 10.407535 -22.672277 0
M  V30 2 C 9.330828 5.301844 -10.896797 0 CFG=1
M  V30 3 O 8.996754 4.845459 -15.324602 0
M  V30 4 C 8.413966 4.463796 -17.630294 0 CFG=1
M  V30 5 C 9.434810 4.839904 -9.434889 0
M  V30 6 C 9.802157 8.569345 -9.190007 0
M  V30 7 C 9.677841 6.616390 -7.548024 0
M  V30 8 C 8.229539 6.501269 -13.558774 0
M  V30 9 C 7.465044 4.953063 -18.752635 0
M  V30 10 C 10.278696 7.712126 -10.389327 0
M  V30 11 C 6.819406 7.115055 -20.604769 0
M  V30 12 C 8.870589 5.149490 -13.932446 0 CFG=1
M  V30 13 C 9.475818 5.659613 -8.415244 0
M  V30 14 N 7.267870 3.224288 -13.534820 0 CHG=1
M  V30 15 C 7.674636 1.964404 -18.226882 0 CFG=2
M  V30 16 N 7.455036 0.837486 -17.314206 0
M  V30 17 O 9.823663 2.571390 -17.275027 0
M  V30 18 C 6.055699 0.990393 -13.489089 0
M  V30 19 C 5.754180 6.294691 -21.007952 0
M  V30 20 C 6.849715 2.056492 -12.717992 0
M  V30 21 C 8.128921 1.417792 -19.590195 0
M  V30 22 N 9.835022 7.949964 -7.867732 0
M  V30 23 C 8.221645 4.460505 -11.563124 0
M  V30 24 C 9.189619 6.843456 -11.105710 0 CFG=1
M  V30 25 C 7.970743 4.823294 -16.197740 0
M  V30 26 S 7.983084 6.569228 -19.389213 0
M  V30 27 C 6.566535 1.178147 -16.219213 0
M  V30 28 C 9.141521 7.277819 -12.582855 0
M  V30 29 C 5.090646 8.071181 -22.498554 0
M  V30 30 C 6.190652 8.825114 -22.030199 0
M  V30 31 F 3.832915 6.033620 -22.402552 0
M  V30 32 C 8.730287 2.957765 -17.686214 0
M  V30 33 C 8.440261 3.986458 -13.018035 0 CFG=2
M  V30 34 C 4.874510 6.785441 -21.976494 0
M  V30 35 S 7.049904 0.201087 -14.782391 0
M  V30 36 O 6.795136 5.052291 -15.911282 0
M  V30 37 N 7.050493 8.354845 -21.091594 0
M  V30 38 H 10.234845 4.983853 -11.391776 0
M  V30 39 H 9.374393 4.956565 -17.784898 0
M  V30 40 H 9.522570 3.778594 -9.280663 0
M  V30 41 H 8.817439 8.993921 -9.376758 0
M  V30 42 H 10.492028 9.405151 -9.115366 0
M  V30 43 H 9.773493 6.422798 -6.489095 0
M  V30 44 H 7.221415 6.386943 -13.160068 0
M  V30 45 H 8.088052 7.092859 -14.459809 0
M  V30 46 H 7.461492 4.273617 -19.603526 0
M  V30 47 H 6.433194 5.024348 -18.408381 0
M  V30 48 H 10.651385 8.449473 -11.091698 0
M  V30 49 H 11.158601 7.123580 -10.131302 0
M  V30 50 H 9.926531 5.273078 -13.693411 0
M  V30 51 H 6.484528 3.851210 -13.658634 0
M  V30 52 H 6.720802 2.470972 -18.371834 0
M  V30 53 H 7.126306 0.005572 -17.785626 0
M  V30 54 H 5.119100 1.370265 -13.891450 0
M  V30 55 H 5.775163 0.200661 -12.790985 0
M  V30 56 H 5.615671 5.311741 -20.586977 0
M  V30 57 H 6.234877 2.416262 -11.891810 0
M  V30 58 H 7.733402 1.570779 -12.299785 0
M  V30 59 H 8.276007 2.214547 -20.320304 0
M  V30 60 H 7.384656 0.735168 -20.002743 0
M  V30 61 H 9.068621 0.867640 -19.507823 0
M  V30 62 H 9.798133 8.601023 -7.097446 0
M  V30 63 H 8.234887 3.532759 -11.031169 0
M  V30 64 H 7.240794 4.908017 -11.396517 0
M  V30 65 H 8.234883 7.102967 -10.691746 0
M  V30 66 H 6.634926 2.232101 -15.961564 0
M  V30 67 H 5.531075 0.969407 -16.491609 0
M  V30 68 H 10.171363 7.232888 -12.936914 0
M  V30 69 H 8.851036 8.329180 -12.609726 0
M  V30 70 H 4.426514 8.477702 -23.246413 0
M  V30 71 H 9.271406 3.280633 -13.009965 0
M  V30 72 H 7.532423 2.867687 -14.441546 0
M  V30 END ATOM
M  V30 BEGIN BOND
M  V30 1 1 5 2
M  V30 2 1 9 4
M  V30 3 1 10 6
M  V30 4 1 12 3
M  V30 5 1 12 8
M  V30 6 2 13 5
M  V30 7 2 13 7
M  V30 8 1 16 15
M  V30 9 2 19 11
M  V30 10 1 20 14
M  V30 11 1 20 18
M  V30 12 1 21 15
M  V30 13 1 22 6
M  V30 14 1 22 7
M  V30 15 1 23 2
M  V30 16 1 24 2
M  V30 17 1 24 10
M  V30 18 1 25 3
M  V30 19 1 25 4
M  V30 20 1 26 9
M  V30 21 1 26 11
M  V30 22 1 27 16
M  V30 23 1 28 8
M  V30 24 1 28 24
M  V30 25 1 30 1
M  V30 26 1 30 29
M  V30 27 1 32 4
M  V30 28 1 32 15
M  V30 29 2 32 17
M  V30 30 1 33 12
M  V30 31 1 33 14
M  V30 32 1 33 23
M  V30 33 1 34 19
M  V30 34 2 34 29
M  V30 35 1 34 31
M  V30 36 1 35 18
M  V30 37 1 35 27
M  V30 38 2 36 25
M  V30 39 1 37 11
M  V30 40 2 37 30
M  V30 41 1 2 38 CFG=3
M  V30 42 1 4 39 CFG=3
M  V30 43 1 40 5
M  V30 44 1 41 6
M  V30 45 1 42 6
M  V30 46 1 43 7
M  V30 47 1 44 8
M  V30 48 1 45 8
M  V30 49 1 46 9
M  V30 50 1 47 9
M  V30 51 1 48 10
M  V30 52 1 49 10
M  V30 53 1 12 50 CFG=1
M  V30 54 1 51 14
M  V30 55 1 15 52 CFG=3
M  V30 56 1 53 16
M  V30 57 1 54 18
M  V30 58 1 55 18
M  V30 59 1 56 19
M  V30 60 1 57 20
M  V30 61 1 58 20
M  V30 62 1 59 21
M  V30 63 1 60 21
M  V30 64 1 61 21
M  V30 65 1 62 22
M  V30 66 1 63 23
M  V30 67 1 64 23
M  V30 68 1 24 65 CFG=1
M  V30 69 1 66 27
M  V30 70 1 67 27
M  V30 71 1 68 28
M  V30 72 1 69 28
M  V30 73 1 70 29
M  V30 74 1 33 71 CFG=1
M  V30 75 1 72 14
M  V30 END BOND
M  V30 END CTAB
M  END
>  <i_epik_Tot_Q>  (1) 
1

>  <i_epik_Tot_abs_Q>  (1) 
1

>  <i_i_glide_confnum>  (1) 
22

>  <i_i_glide_lignum>  (1) 
16

>  <i_i_glide_posenum>  (1) 
308

>  <i_i_glide_rotatable_bonds>  (1) 
3

>  <i_lp_mmshare_version>  (1) 
72125

>  <i_m_source_file_index>  (1) 
11

>  <i_f3d_flags>  (1) 
0

>  <num_sample>  (1) 
100

>  <b_lp_Chiralities_Consistent>  (1) 
1

>  <r_epik_Charging_Adjusted_Penalty>  (1) 
0.12758977024119775

>  <r_epik_Ionization_Penalty>  (1) 
0.067546712429239514

>  <r_epik_Ionization_Penalty_Charging>  (1) 
0.063794885120598888

>  <r_epik_Ionization_Penalty_Neutral>  (1) 
0.0037518273086406219

>  <r_epik_State_Penalty>  (1) 
0.06379488512059886

>  <r_glide_ring_energy>  (1) 
0

>  <r_i_docking_score>  (1) 
-4.1442853121701306

>  <r_i_glide_ecoul>  (1) 
-2.1070590590315073

>  <r_i_glide_eff_state_penalty>  (1) 
0.06379488512059886

>  <r_i_glide_einternal>  (1) 
2.1420228053248067

>  <r_i_glide_emodel>  (1) 
-31.436584329186658

>  <r_i_glide_emodel_strain>  (1) 
0.84054750007489076

>  <r_i_glide_energy>  (1) 
-32.731291330820213

>  <r_i_glide_erotb>  (1) 
0.10236479025810979

>  <r_i_glide_esite>  (1) 
-0.073147929172301077

>  <r_i_glide_evdw>  (1) 
-30.624232271788703

>  <r_i_glide_gscore>  (1) 
-4.2080801972907294

>  <r_i_glide_gscore_strain>  (1) 
0

>  <r_i_glide_hbond>  (1) 
0

>  <r_i_glide_ligand_efficiency>  (1) 
-0.11200771113973326

>  <r_i_glide_ligand_efficiency_ln>  (1) 
-0.89879832837741991

>  <r_i_glide_ligand_efficiency_sa>  (1) 
-0.37323454261266709

>  <r_i_glide_lipo>  (1) 
-1.5355789113956457

>  <r_i_glide_metal>  (1) 
-0

>  <r_i_glide_rewards>  (1) 
-0.85444767453673054

>  <r_lp_Energy>  (1) 
41.039594999999998

>  <r_lp_tautomer_probability>  (1) 
0.99999998000000012

>  <s_epik_Chemistry_Notes>  (1) 
This compound has an ester and may undergo hydrolysis at high or low pH. This compound contains an acetal/aminal-like group ( X-CH(R)-Y where X, Y are N, S, or O) that may be acid/base labile, releasing an aldehyde.

>  <s_epik_cmdline>  (1) 
J2VwaWtfcHl0aG9uJywgJy1waHQnLCAnMS4wJywgJy1waCcsICc3LjQnLCAnLXRuJywgJzgnLCAnLW1hJywgJzUwMCcsICctaW1hZScsICc8aW5maWxlLm1hZT4nLCAnLW9tYWUnLCAnPG91dGZpbGUubWFlPic=

>  <s_epik_input>  (1) 
Q2xjKG4xKVtjSF1jKEYpW2NIXWMxU1tDSDJdW0NAQEhdKEMoTzIpPU8pQyg9TylbQ0BASF0oW0NIM10pW05IXVtDSDJdU1tDSDJdW0NIMl1bTkhdW0NASF0oW0NIMl0zKVtDQEBIXTJbQ0gyXVtDSDJdW0NAQEhdKFtDQEhdMzQpW0NIMl1bQ0gyXVtOSF1bQ0hdPUM9W0NIXTQ=

>  <s_glide_docking_method>  (1) 
confgen

>  <s_i_glide_gridfile>  (1) 
gpcr_drd2_6luq_protein_autoprepared_prepared

>  <s_lp_Force_Field>  (1) 
S-OPLS

>  <s_lp_Variant>  (1) 
DiffSBDD_10_num_sample_100-1

>  <s_m_source_file>  (1) 
generated__ligand_DiffSBDD_2026-05-06_prepared.sdf

>  <GenAI_Model>  (1) 
DiffSBDD

>  <Protein>  (1) 
generic_title2

$$$$
DiffSBDD_56_num_sample_100
     RDKit          3D

  0  0  0  0  0  0  0  0  0  0999 V3000
M  V30 BEGIN CTAB
M  V30 COUNTS 69 75 0 0 1
M  V30 BEGIN ATOM
M  V30 1 O 11.208630 0.169289 -19.113599 0
M  V30 2 C 6.234806 6.578521 -14.511293 0
M  V30 3 C 9.000968 4.627001 -12.928378 0
M  V30 4 C 7.600807 4.165044 -15.071326 0
M  V30 5 C 7.261294 2.914673 -22.074719 0 CFG=2
M  V30 6 C 6.960180 5.075879 -17.349986 0
M  V30 7 F 9.162863 4.779134 -16.640245 0
M  V30 8 C 9.298700 0.047636 -20.624181 0
M  V30 9 C 5.476370 6.270168 -19.090139 0 CFG=1
M  V30 10 C 10.229021 0.810367 -19.861819 0
M  V30 11 C 5.708432 7.381121 -15.393855 0
M  V30 12 C 6.422740 4.656707 -20.602955 0 CFG=1
M  V30 13 C 5.647203 7.294394 -20.166656 0
M  V30 14 N 7.563131 4.262848 -21.443604 0
M  V30 15 C 6.762966 6.616696 -12.111383 0
M  V30 16 C 7.958898 5.159464 -16.204445 0 CFG=2
M  V30 17 C 9.129737 2.832400 -20.643003 0
M  V30 18 C 12.162385 0.900808 -18.307068 0
M  V30 19 C 11.080500 3.004282 -19.092147 0
M  V30 20 C 6.846881 6.004524 -13.500927 0
M  V30 21 C 9.364452 -1.461754 -20.624603 0
M  V30 22 C 8.914475 4.286269 -20.737950 0
M  V30 23 C 6.163259 3.706664 -19.384513 0
M  V30 24 C 12.017449 2.406961 -18.364844 0
M  V30 25 C 7.034858 3.977876 -18.159828 0
M  V30 26 C 10.140971 2.225849 -19.872914 0
M  V30 27 C 7.843331 3.736436 -12.549439 0
M  V30 28 C 6.562903 6.088344 -20.123584 0 CFG=1
M  V30 29 O 7.823373 7.515822 -11.891667 0
M  V30 30 C 5.979736 6.199131 -17.697184 0
M  V30 31 C 8.260447 2.111018 -21.352829 0
M  V30 32 C 7.504641 2.971170 -23.571741 0
M  V30 33 C 5.512109 7.186320 -16.845019 0
M  V30 34 C 8.304436 0.710637 -21.376971 0
M  V30 35 C 7.680905 4.753735 -13.668700 0
M  V30 36 H 9.834764 4.169499 -13.454983 0
M  V30 37 H 9.287370 5.392843 -12.212324 0
M  V30 38 H 6.587462 3.787275 -15.205391 0
M  V30 39 H 8.234826 3.279533 -15.136619 0
M  V30 40 H 6.250811 2.556068 -21.871846 0
M  V30 41 H 4.511821 5.774930 -19.183818 0
M  V30 42 H 5.259873 8.282662 -15.009101 0
M  V30 43 H 5.540344 4.623255 -21.244061 0
M  V30 44 H 6.069370 8.258204 -19.891280 0
M  V30 45 H 4.912014 7.323932 -20.968173 0
M  V30 46 H 6.720729 5.882009 -11.311719 0
M  V30 47 H 5.838014 7.189794 -12.021121 0
M  V30 48 H 8.202047 6.169297 -15.906761 0
M  V30 49 H 12.064284 0.577456 -17.271398 0
M  V30 50 H 13.168564 0.633399 -18.629631 0
M  V30 51 H 10.999367 4.080276 -19.113896 0
M  V30 52 H 8.713977 -1.887041 -21.389271 0
M  V30 53 H 10.378564 -1.800856 -20.825374 0
M  V30 54 H 9.034871 -1.836897 -19.655863 0
M  V30 55 H 9.674221 4.732818 -21.379937 0
M  V30 56 H 8.928636 4.772383 -19.765365 0
M  V30 57 H 6.298251 2.658988 -19.643517 0
M  V30 58 H 5.117749 3.725936 -19.080340 0
M  V30 59 H 12.712963 2.994064 -17.783405 0
M  V30 60 H 7.762102 3.211924 -17.930443 0
M  V30 61 H 7.376092 3.903860 -11.583989 0
M  V30 62 H 7.926718 2.686631 -12.824274 0
M  V30 63 H 7.569742 6.367745 -19.823962 0
M  V30 64 H 7.734329 7.769320 -10.969384 0
M  V30 65 H 7.393189 1.973379 -23.990403 0
M  V30 66 H 6.766143 3.631914 -24.020022 0
M  V30 67 H 8.501364 3.342855 -23.811104 0
M  V30 68 H 4.853114 7.908126 -17.306792 0
M  V30 69 H 7.586114 0.148915 -21.956376 0
M  V30 END ATOM
M  V30 BEGIN BOND
M  V30 1 1 10 1
M  V30 2 1 10 8
M  V30 3 2 11 2
M  V30 4 1 13 9
M  V30 5 1 14 5
M  V30 6 1 14 12
M  V30 7 1 16 4
M  V30 8 1 16 6
M  V30 9 1 16 7
M  V30 10 1 18 1
M  V30 11 2 20 2
M  V30 12 1 20 15
M  V30 13 1 21 8
M  V30 14 1 22 14
M  V30 15 1 22 17
M  V30 16 1 23 12
M  V30 17 1 24 18
M  V30 18 2 24 19
M  V30 19 2 25 6
M  V30 20 1 25 23
M  V30 21 2 26 10
M  V30 22 1 26 17
M  V30 23 1 26 19
M  V30 24 1 27 3
M  V30 25 1 28 9
M  V30 26 1 28 12
M  V30 27 1 28 13
M  V30 28 1 29 15
M  V30 29 1 30 6
M  V30 30 1 30 9
M  V30 31 1 31 5
M  V30 32 2 31 17
M  V30 33 1 32 5
M  V30 34 1 33 11
M  V30 35 2 33 30
M  V30 36 2 34 8
M  V30 37 1 34 31
M  V30 38 1 35 3
M  V30 39 1 35 4
M  V30 40 1 35 20
M  V30 41 1 35 27
M  V30 42 1 36 3
M  V30 43 1 37 3
M  V30 44 1 38 4
M  V30 45 1 39 4
M  V30 46 1 5 40 CFG=3
M  V30 47 1 9 41 CFG=1
M  V30 48 1 42 11
M  V30 49 1 12 43 CFG=3
M  V30 50 1 44 13
M  V30 51 1 45 13
M  V30 52 1 46 15
M  V30 53 1 47 15
M  V30 54 1 16 48 CFG=1
M  V30 55 1 49 18
M  V30 56 1 50 18
M  V30 57 1 51 19
M  V30 58 1 52 21
M  V30 59 1 53 21
M  V30 60 1 54 21
M  V30 61 1 55 22
M  V30 62 1 56 22
M  V30 63 1 57 23
M  V30 64 1 58 23
M  V30 65 1 59 24
M  V30 66 1 60 25
M  V30 67 1 61 27
M  V30 68 1 62 27
M  V30 69 1 28 63 CFG=1
M  V30 70 1 64 29
M  V30 71 1 65 32
M  V30 72 1 66 32
M  V30 73 1 67 32
M  V30 74 1 68 33
M  V30 75 1 69 34
M  V30 END BOND
M  V30 END CTAB
M  END
>  <i_epik_Tot_Q>  (1) 
0

>  <i_epik_Tot_abs_Q>  (1) 
0

>  <i_i_glide_confnum>  (1) 
7

>  <i_i_glide_lignum>  (1) 
114

>  <i_i_glide_posenum>  (1) 
28

>  <i_i_glide_rotatable_bonds>  (1) 
3

>  <i_lp_mmshare_version>  (1) 
72125

>  <i_m_source_file_index>  (1) 
57

>  <i_f3d_flags>  (1) 
0

>  <num_sample>  (1) 
100

>  <b_lp_Chiralities_Consistent>  (1) 
1

>  <r_epik_Charging_Adjusted_Penalty>  (1) 
1.2909634030870925

>  <r_epik_Ionization_Penalty>  (1) 
1.2909642397240775

>  <r_epik_Ionization_Penalty_Charging>  (1) 
0

>  <r_epik_Ionization_Penalty_Neutral>  (1) 
1.2909642397240775

>  <r_epik_State_Penalty>  (1) 
1.2909634030870925

>  <r_glide_ring_energy>  (1) 
1.3013915201378028

>  <r_i_docking_score>  (1) 
-4.140924917950084

>  <r_i_glide_ecoul>  (1) 
-4.84378561887935

>  <r_i_glide_eff_state_penalty>  (1) 
1.2909634030870925

>  <r_i_glide_einternal>  (1) 
4.1798629589576741

>  <r_i_glide_emodel>  (1) 
-33.872371621269465

>  <r_i_glide_emodel_strain>  (1) 
0.24849680465439405

>  <r_i_glide_energy>  (1) 
-31.090191288120153

>  <r_i_glide_erotb>  (1) 
0.18175884728826419

>  <r_i_glide_esite>  (1) 
0

>  <r_i_glide_evdw>  (1) 
-26.246405669240804

>  <r_i_glide_gscore>  (1) 
-5.4318883210371762

>  <r_i_glide_gscore_strain>  (1) 
0

>  <r_i_glide_hbond>  (1) 
-0.16

>  <r_i_glide_ligand_efficiency>  (1) 
-0.11831214051285954

>  <r_i_glide_ligand_efficiency_ln>  (1) 
-0.90902492236700139

>  <r_i_glide_ligand_efficiency_sa>  (1) 
-0.38700685691791348

>  <r_i_glide_lipo>  (1) 
-2.5677778158432929

>  <r_i_glide_metal>  (1) 
-0

>  <r_i_glide_rewards>  (1) 
-0.84698122618820515

>  <r_lp_Energy>  (1) 
69.698508000000004

>  <s_epik_cmdline>  (1) 
J2VwaWtfcHl0aG9uJywgJy1waHQnLCAnMS4wJywgJy1waCcsICc3LjQnLCAnLXRuJywgJzgnLCAnLW1hJywgJzUwMCcsICctaW1hZScsICc8aW5maWxlLm1hZT4nLCAnLW9tYWUnLCAnPG91dGZpbGUubWFlPic=

>  <s_epik_input>  (1) 
TzFbQ0gyXVtDSF09W0NIXWMoYzEyKWMzYyhbY0hdYzJbQ0gzXSlbQ0BIXShbQ0gzXSlOKFtDSDJdMylbQ0BASF0oW0NIMl1bQ0hdNClbQ0BASF0oW0NIMl01KVtDQEhdNUMoXEM9NFtDQEhdKEYpW0NIMl1DNjdbQ0gyXVtDSDJdNyk9W0NIXVxbQ0hdPUM9QzZbQ0gyXVtPSF0=

>  <s_glide_docking_method>  (1) 
confgen

>  <s_i_glide_gridfile>  (1) 
gpcr_drd2_6luq_protein_autoprepared_prepared

>  <s_lp_Force_Field>  (1) 
S-OPLS

>  <s_lp_Variant>  (1) 
DiffSBDD_56_num_sample_100-3

>  <s_m_source_file>  (1) 
generated__ligand_DiffSBDD_2026-05-06_prepared.sdf

>  <GenAI_Model>  (1) 
DiffSBDD

>  <Protein>  (1) 
generic_title2

$$$$
DiffSBDD_62_num_sample_100
     RDKit          3D

  0  0  0  0  0  0  0  0  0  0999 V3000
M  V30 BEGIN CTAB
M  V30 COUNTS 82 88 0 0 1
M  V30 BEGIN ATOM
M  V30 1 C 12.377527 2.871000 -20.779412 0
M  V30 2 C 13.329640 5.219275 -21.375262 0
M  V30 3 S 11.304104 1.598393 -18.517337 0
M  V30 4 C 10.792313 4.848172 -21.619870 0 CFG=2
M  V30 5 C 7.669722 4.565218 -16.267543 0
M  V30 6 C 14.669794 1.552628 -19.267338 0
M  V30 7 C 7.970192 5.174943 -11.887180 0 CFG=1
M  V30 8 O 14.779060 4.858561 -18.334600 0
M  V30 9 C 8.058007 5.925287 -20.291484 0 CFG=2
M  V30 10 O 9.806581 4.217383 -20.796972 0
M  V30 11 F 7.972278 3.904336 -12.291624 0
M  V30 12 C 8.362058 2.674623 -18.715170 0 CFG=2
M  V30 13 C 6.116929 6.745497 -12.177654 0
M  V30 14 N 7.037598 5.877903 -17.980623 0
M  V30 15 O 11.004791 3.574595 -23.480965 0
M  V30 16 C 14.936991 3.725553 -18.785314 0
M  V30 17 C 6.072499 5.622604 -14.446876 0
M  V30 18 C 6.926019 5.252653 -21.085372 0
M  V30 19 C 15.228008 -0.630665 -20.112562 0
M  V30 20 O 8.590656 6.938386 -21.122198 0
M  V30 21 C 13.836015 2.573390 -18.585049 0 CFG=1
M  V30 22 N 7.893405 4.851902 -17.584143 0
M  V30 23 C 10.306093 4.715709 -23.064347 0
M  V30 24 C 6.831986 6.599256 -13.522759 0 CFG=2
M  V30 25 C 5.344759 7.434034 -17.009940 0
M  V30 26 C 9.203419 5.023668 -19.779683 0 CFG=2
M  V30 27 C 8.804349 4.170898 -18.533711 0 CFG=2
M  V30 28 C 16.710840 1.124842 -20.407986 0
M  V30 29 S 9.545112 1.584872 -19.567634 0
M  V30 30 C 12.420861 2.880701 -19.203912 0 CFG=1
M  V30 31 O 12.040361 4.150744 -18.712412 0
M  V30 32 C 15.834743 1.997172 -19.739627 0
M  V30 33 C 6.326036 6.279226 -16.912737 0
M  V30 34 C 8.218683 6.106916 -13.081658 0
M  V30 35 C 7.534986 6.697947 -19.085221 0
M  V30 36 C 6.634948 5.535254 -15.852260 0
M  V30 37 C 12.206648 4.189400 -21.591625 0 CFG=2
M  V30 38 C 6.959690 2.447500 -19.294281 0
M  V30 39 O 8.221663 3.690866 -15.603511 0
M  V30 40 N 16.423782 -0.190050 -20.604727 0
M  V30 41 C 14.314185 0.207666 -19.431288 0
M  V30 42 O 16.084803 3.294591 -19.521918 0
M  V30 43 O 12.376594 3.788103 -22.942291 0
M  V30 44 C 6.579669 5.542578 -11.346207 0
M  V30 45 H 11.605880 2.191798 -21.130750 0
M  V30 46 H 13.277453 2.397939 -21.165633 0
M  V30 47 H 13.261137 5.703632 -20.402781 0
M  V30 48 H 14.313662 4.758941 -21.462651 0
M  V30 49 H 13.278607 6.010428 -22.124010 0
M  V30 50 H 10.884867 5.907885 -21.382225 0
M  V30 51 H 8.747596 5.272914 -11.128605 0
M  V30 52 H 8.326531 2.240224 -17.716642 0
M  V30 53 H 6.444258 7.668058 -11.697685 0
M  V30 54 H 5.034768 6.802911 -12.264952 0
M  V30 55 H 5.034944 5.942766 -14.528283 0
M  V30 56 H 6.038227 4.620296 -14.018075 0
M  V30 57 H 6.234895 4.728271 -20.430840 0
M  V30 58 H 6.325119 5.992412 -21.615686 0
M  V30 59 H 7.306755 4.547807 -21.823479 0
M  V30 60 H 15.000880 -1.675073 -20.267515 0
M  V30 61 H 8.909445 6.538387 -21.915939 0
M  V30 62 H 13.760320 2.346492 -17.520864 0
M  V30 63 H 9.227898 4.598534 -23.165349 0
M  V30 64 H 10.627643 5.566858 -23.665988 0
M  V30 65 H 6.907437 7.568154 -14.018251 0
M  V30 66 H 4.398580 7.161301 -16.543209 0
M  V30 67 H 5.740780 8.305805 -16.488663 0
M  V30 68 H 9.973258 5.697019 -19.396438 0
M  V30 69 H 9.718278 4.087837 -17.951574 0
M  V30 70 H 17.656723 1.478102 -20.791448 0
M  V30 71 H 12.816663 4.624686 -18.442665 0
M  V30 72 H 8.803454 5.640127 -13.872405 0
M  V30 73 H 8.795580 6.964867 -12.733531 0
M  V30 74 H 8.324873 7.338752 -18.692031 0
M  V30 75 H 6.745095 7.368957 -19.419667 0
M  V30 76 H 6.208727 3.075643 -18.814733 0
M  V30 77 H 6.941449 2.622342 -20.368515 0
M  V30 78 H 6.651064 1.412776 -19.143585 0
M  V30 79 H 13.379343 -0.177975 -19.054633 0
M  V30 80 H 6.600556 5.769305 -10.280755 0
M  V30 81 H 5.888477 4.709392 -11.480846 0
M  V30 82 H 5.126968 7.717537 -18.038414 0
M  V30 END ATOM
M  V30 BEGIN BOND
M  V30 1 1 10 4
M  V30 2 1 11 7
M  V30 3 2 16 8
M  V30 4 1 18 9
M  V30 5 1 9 20 CFG=3
M  V30 6 1 21 6
M  V30 7 1 21 16
M  V30 8 1 22 5
M  V30 9 1 22 14
M  V30 10 1 23 4
M  V30 11 1 23 15
M  V30 12 1 24 13
M  V30 13 1 24 17
M  V30 14 1 26 9
M  V30 15 1 26 10
M  V30 16 1 27 12
M  V30 17 1 27 22
M  V30 18 1 27 26
M  V30 19 1 29 3
M  V30 20 1 29 12
M  V30 21 1 30 1
M  V30 22 1 30 3
M  V30 23 1 30 21
M  V30 24 1 30 31 CFG=1
M  V30 25 2 32 6
M  V30 26 1 32 28
M  V30 27 1 33 14
M  V30 28 1 33 25
M  V30 29 1 34 7
M  V30 30 1 34 24
M  V30 31 1 35 9
M  V30 32 1 35 14
M  V30 33 1 36 5
M  V30 34 1 36 17
M  V30 35 2 36 33
M  V30 36 1 37 1
M  V30 37 1 37 2 CFG=1
M  V30 38 1 37 4
M  V30 39 1 38 12
M  V30 40 2 39 5
M  V30 41 1 40 19
M  V30 42 2 40 28
M  V30 43 1 41 6
M  V30 44 2 41 19
M  V30 45 1 42 16
M  V30 46 1 42 32
M  V30 47 1 43 15
M  V30 48 1 43 37
M  V30 49 1 44 7
M  V30 50 1 44 13
M  V30 51 1 45 1
M  V30 52 1 46 1
M  V30 53 1 47 2
M  V30 54 1 48 2
M  V30 55 1 49 2
M  V30 56 1 4 50 CFG=1
M  V30 57 1 7 51 CFG=1
M  V30 58 1 12 52 CFG=1
M  V30 59 1 53 13
M  V30 60 1 54 13
M  V30 61 1 55 17
M  V30 62 1 56 17
M  V30 63 1 57 18
M  V30 64 1 58 18
M  V30 65 1 59 18
M  V30 66 1 60 19
M  V30 67 1 61 20
M  V30 68 1 21 62 CFG=1
M  V30 69 1 63 23
M  V30 70 1 64 23
M  V30 71 1 24 65 CFG=3
M  V30 72 1 66 25
M  V30 73 1 67 25
M  V30 74 1 26 68 CFG=1
M  V30 75 1 27 69 CFG=1
M  V30 76 1 70 28
M  V30 77 1 71 31
M  V30 78 1 72 34
M  V30 79 1 73 34
M  V30 80 1 74 35
M  V30 81 1 75 35
M  V30 82 1 76 38
M  V30 83 1 77 38
M  V30 84 1 78 38
M  V30 85 1 79 41
M  V30 86 1 80 44
M  V30 87 1 81 44
M  V30 88 1 82 25
M  V30 END BOND
M  V30 END CTAB
M  END
>  <i_epik_Tot_Q>  (1) 
0

>  <i_epik_Tot_abs_Q>  (1) 
0

>  <i_i_glide_confnum>  (1) 
47

>  <i_i_glide_lignum>  (1) 
124

>  <i_i_glide_posenum>  (1) 
138

>  <i_i_glide_rotatable_bonds>  (1) 
5

>  <i_lp_mmshare_version>  (1) 
72125

>  <i_m_source_file_index>  (1) 
63

>  <i_f3d_flags>  (1) 
0

>  <num_sample>  (1) 
100

>  <b_lp_Chiralities_Consistent>  (1) 
1

>  <r_epik_Charging_Adjusted_Penalty>  (1) 
9.3393148110690276e-05

>  <r_epik_Ionization_Penalty>  (1) 
0.00038220122724724384

>  <r_epik_Ionization_Penalty_Charging>  (1) 
9.3393148110690276e-05

>  <r_epik_Ionization_Penalty_Neutral>  (1) 
0.00028880807913655358

>  <r_epik_State_Penalty>  (1) 
-0

>  <r_glide_ring_energy>  (1) 
2.0894639759657161

>  <r_i_docking_score>  (1) 
-4.1362516323351635

>  <r_i_glide_ecoul>  (1) 
-0.47234184736340323

>  <r_i_glide_eff_state_penalty>  (1) 
-0

>  <r_i_glide_einternal>  (1) 
5.4091412492815465

>  <r_i_glide_emodel>  (1) 
-39.534995920054513

>  <r_i_glide_emodel_strain>  (1) 
0.044861677118660737

>  <r_i_glide_energy>  (1) 
-33.912172471439781

>  <r_i_glide_erotb>  (1) 
0.15000188296614175

>  <r_i_glide_esite>  (1) 
-0.0027400074066242907

>  <r_i_glide_evdw>  (1) 
-33.439830624076379

>  <r_i_glide_gscore>  (1) 
-4.1362516323351635

>  <r_i_glide_gscore_strain>  (1) 
0

>  <r_i_glide_hbond>  (1) 
0

>  <r_i_glide_ligand_efficiency>  (1) 
-0.094005718916708267

>  <r_i_glide_ligand_efficiency_ln>  (1) 
-0.8645668229809621

>  <r_i_glide_ligand_efficiency_sa>  (1) 
-0.33187293328873085

>  <r_i_glide_lipo>  (1) 
-1.5989667931216818

>  <r_i_glide_metal>  (1) 
-0

>  <r_i_glide_rewards>  (1) 
-0.94170390646466917

>  <r_lp_Energy>  (1) 
36.201265999999997

>  <r_lp_tautomer_probability>  (1) 
1

>  <s_epik_cmdline>  (1) 
J2VwaWtfcHl0aG9uJywgJy1waHQnLCAnMS4wJywgJy1waCcsICc3LjQnLCAnLXRuJywgJzgnLCAnLW1hJywgJzUwMCcsICctaW1hZScsICc8aW5maWxlLm1hZT4nLCAnLW9tYWUnLCAnPG91dGZpbGUubWFlPic=

>  <s_epik_input>  (1) 
W2NIXTFbY0hdbltjSF1jKGMxMilPQyg9TylbQ0BIXTJbQ0BdKFtDSDJdMykoW09IXSlTU1tDQEhdKFtDSDNdKVtDQEBIXShbQ0BIXTRPW0NASF0oW0NIMl1PTzUpW0NAQF0zNVtDSDNdKU42TihbQ0gyXVtDQEBdNChbQ0gzXSlbT0hdKUMoPVtDSDJdKVtDQEhdKEM2PU8pW0NIMl1bQ0BASF0oW0NIMl1bQ0gyXTcpW0NIMl1bQ0BASF03Rg==

>  <s_glide_docking_method>  (1) 
confgen

>  <s_i_glide_gridfile>  (1) 
gpcr_drd2_6luq_protein_autoprepared_prepared

>  <s_lp_Force_Field>  (1) 
S-OPLS

>  <s_lp_Variant>  (1) 
DiffSBDD_62_num_sample_100-1

>  <s_m_source_file>  (1) 
generated__ligand_DiffSBDD_2026-05-06_prepared.sdf

>  <GenAI_Model>  (1) 
DiffSBDD

>  <Protein>  (1) 
generic_title2

$$$$
DiffSBDD_62_num_sample_100
     RDKit          3D

  0  0  0  0  0  0  0  0  0  0999 V3000
M  V30 BEGIN CTAB
M  V30 COUNTS 82 88 0 0 1
M  V30 BEGIN ATOM
M  V30 1 C 11.394370 0.771159 -20.737804 0
M  V30 2 C 11.814709 2.455117 -22.662925 0
M  V30 3 S 11.279577 0.848773 -17.939698 0
M  V30 4 C 9.379863 2.136857 -21.832945 0 CFG=2
M  V30 5 C 8.128368 4.728665 -16.342381 0
M  V30 6 C 14.089900 2.250245 -18.223597 0
M  V30 7 C 6.316974 5.550992 -11.336759 0 CFG=1
M  V30 8 O 14.117525 -0.744366 -19.914787 0
M  V30 9 C 6.992857 3.759416 -20.334511 0 CFG=2
M  V30 10 O 8.793854 2.033425 -20.529447 0
M  V30 11 F 7.620215 5.410068 -11.084819 0
M  V30 12 C 8.328974 1.815260 -17.590822 0 CFG=2
M  V30 13 C 6.323976 4.452605 -13.451061 0
M  V30 14 N 6.750123 4.925672 -18.107360 0
M  V30 15 O 9.162045 0.100595 -22.806132 0
M  V30 16 C 14.194751 0.199187 -19.131883 0
M  V30 17 C 6.985132 6.565001 -14.822595 0
M  V30 18 C 5.817072 2.772677 -20.233252 0
M  V30 19 C 14.595781 4.039956 -16.691692 0
M  V30 20 O 7.061002 4.172300 -21.685162 0
M  V30 21 C 13.491092 1.618325 -19.429835 0 CFG=1
M  V30 22 N 7.873732 4.273709 -17.604210 0
M  V30 23 C 8.487490 1.328967 -22.777639 0
M  V30 24 C 6.057293 5.936532 -13.762183 0 CFG=2
M  V30 25 C 5.152469 6.738013 -17.475921 0
M  V30 26 C 8.386204 3.253226 -19.895752 0 CFG=2
M  V30 27 C 8.550653 3.180165 -18.344624 0 CFG=2
M  V30 28 C 15.434040 1.916966 -16.291667 0
M  V30 29 S 9.303120 0.393833 -18.173292 0
M  V30 30 C 11.919798 1.576379 -19.494779 0 CFG=1
M  V30 31 O 11.520963 2.921945 -19.643421 0
M  V30 32 C 14.814298 1.434089 -17.457277 0
M  V30 33 C 6.329593 5.821583 -17.194260 0
M  V30 34 C 6.119182 6.649794 -12.393037 0
M  V30 35 C 6.722234 5.052876 -19.564622 0
M  V30 36 C 7.087490 5.749433 -16.101356 0
M  V30 37 C 10.806783 1.512880 -21.974537 0 CFG=2
M  V30 38 C 6.876735 1.361196 -17.400487 0
M  V30 39 O 9.028829 4.354612 -15.597514 0
M  V30 40 N 15.345772 3.217846 -15.899853 0
M  V30 41 C 13.948861 3.600701 -17.871721 0
M  V30 42 O 14.905219 0.169304 -17.889562 0
M  V30 43 O 10.594427 0.487758 -22.933037 0
M  V30 44 C 5.839804 4.269793 -12.015401 0
M  V30 45 H 10.661394 0.028059 -20.434913 0
M  V30 46 H 12.201655 0.155096 -21.124120 0
M  V30 47 H 11.996721 3.363633 -22.091947 0
M  V30 48 H 12.773587 1.960592 -22.820067 0
M  V30 49 H 11.446586 2.766117 -23.641222 0
M  V30 50 H 9.399392 3.172290 -22.173830 0
M  V30 51 H 5.820421 5.765420 -10.388916 0
M  V30 52 H 8.710010 1.962698 -16.580428 0
M  V30 53 H 5.834912 3.776814 -14.152242 0
M  V30 54 H 7.393933 4.243930 -13.485611 0
M  V30 55 H 7.987570 6.674511 -14.409342 0
M  V30 56 H 6.642131 7.571405 -15.065866 0
M  V30 57 H 5.456318 2.681664 -19.211976 0
M  V30 58 H 4.962845 3.120195 -20.815044 0
M  V30 59 H 6.081233 1.780450 -20.597814 0
M  V30 60 H 14.517979 5.069981 -16.376571 0
M  V30 61 H 7.187077 3.405896 -22.222197 0
M  V30 62 H 13.920175 2.052228 -20.333061 0
M  V30 63 H 7.457022 1.222734 -22.439891 0
M  V30 64 H 8.489088 1.757134 -23.780862 0
M  V30 65 H 5.034837 6.007084 -14.129827 0
M  V30 66 H 4.491957 6.770259 -16.609576 0
M  V30 67 H 5.500293 7.752007 -17.673651 0
M  V30 68 H 9.098487 4.027166 -20.189973 0
M  V30 69 H 9.603062 3.390852 -18.169150 0
M  V30 70 H 16.023939 1.261293 -15.668030 0
M  V30 71 H 12.260220 3.428170 -19.941322 0
M  V30 72 H 6.919313 7.389288 -12.334942 0
M  V30 73 H 5.185378 7.183235 -12.211117 0
M  V30 74 H 7.459415 5.809685 -19.838312 0
M  V30 75 H 5.757176 5.451893 -19.874808 0
M  V30 76 H 6.234841 2.169304 -17.059456 0
M  V30 77 H 6.467836 0.939080 -18.316482 0
M  V30 78 H 6.821774 0.575051 -16.646761 0
M  V30 79 H 13.370557 4.283247 -18.474328 0
M  V30 80 H 4.752094 4.209808 -11.993700 0
M  V30 81 H 6.234850 3.369305 -11.544875 0
M  V30 82 H 4.558252 6.402338 -18.324748 0
M  V30 END ATOM
M  V30 BEGIN BOND
M  V30 1 1 10 4
M  V30 2 1 11 7
M  V30 3 2 16 8
M  V30 4 1 18 9
M  V30 5 1 9 20 CFG=3
M  V30 6 1 21 6
M  V30 7 1 21 16
M  V30 8 1 22 5
M  V30 9 1 22 14
M  V30 10 1 23 4
M  V30 11 1 23 15
M  V30 12 1 24 13
M  V30 13 1 24 17
M  V30 14 1 26 9
M  V30 15 1 26 10
M  V30 16 1 27 12
M  V30 17 1 27 22
M  V30 18 1 27 26
M  V30 19 1 29 3
M  V30 20 1 29 12
M  V30 21 1 30 1
M  V30 22 1 30 3
M  V30 23 1 30 21
M  V30 24 1 30 31 CFG=3
M  V30 25 2 32 6
M  V30 26 1 32 28
M  V30 27 1 33 14
M  V30 28 1 33 25
M  V30 29 1 34 7
M  V30 30 1 34 24
M  V30 31 1 35 9
M  V30 32 1 35 14
M  V30 33 1 36 5
M  V30 34 1 36 17
M  V30 35 2 36 33
M  V30 36 1 37 1
M  V30 37 1 37 2 CFG=3
M  V30 38 1 37 4
M  V30 39 1 38 12
M  V30 40 2 39 5
M  V30 41 1 40 19
M  V30 42 2 40 28
M  V30 43 1 41 6
M  V30 44 2 41 19
M  V30 45 1 42 16
M  V30 46 1 42 32
M  V30 47 1 43 15
M  V30 48 1 43 37
M  V30 49 1 44 7
M  V30 50 1 44 13
M  V30 51 1 45 1
M  V30 52 1 46 1
M  V30 53 1 47 2
M  V30 54 1 48 2
M  V30 55 1 49 2
M  V30 56 1 4 50 CFG=3
M  V30 57 1 7 51 CFG=1
M  V30 58 1 12 52 CFG=1
M  V30 59 1 53 13
M  V30 60 1 54 13
M  V30 61 1 55 17
M  V30 62 1 56 17
M  V30 63 1 57 18
M  V30 64 1 58 18
M  V30 65 1 59 18
M  V30 66 1 60 19
M  V30 67 1 61 20
M  V30 68 1 21 62 CFG=3
M  V30 69 1 63 23
M  V30 70 1 64 23
M  V30 71 1 24 65 CFG=3
M  V30 72 1 66 25
M  V30 73 1 67 25
M  V30 74 1 26 68 CFG=3
M  V30 75 1 27 69 CFG=3
M  V30 76 1 70 28
M  V30 77 1 71 31
M  V30 78 1 72 34
M  V30 79 1 73 34
M  V30 80 1 74 35
M  V30 81 1 75 35
M  V30 82 1 76 38
M  V30 83 1 77 38
M  V30 84 1 78 38
M  V30 85 1 79 41
M  V30 86 1 80 44
M  V30 87 1 81 44
M  V30 88 1 82 25
M  V30 END BOND
M  V30 END CTAB
M  END
>  <i_epik_Tot_Q>  (1) 
0

>  <i_epik_Tot_abs_Q>  (1) 
0

>  <i_i_glide_confnum>  (1) 
14

>  <i_i_glide_lignum>  (1) 
124

>  <i_i_glide_posenum>  (1) 
53

>  <i_i_glide_rotatable_bonds>  (1) 
5

>  <i_lp_mmshare_version>  (1) 
72125

>  <i_m_source_file_index>  (1) 
63

>  <i_f3d_flags>  (1) 
0

>  <num_sample>  (1) 
100

>  <b_lp_Chiralities_Consistent>  (1) 
1

>  <r_epik_Charging_Adjusted_Penalty>  (1) 
9.3393148110690276e-05

>  <r_epik_Ionization_Penalty>  (1) 
0.00038220122724724384

>  <r_epik_Ionization_Penalty_Charging>  (1) 
9.3393148110690276e-05

>  <r_epik_Ionization_Penalty_Neutral>  (1) 
0.00028880807913655358

>  <r_epik_State_Penalty>  (1) 
-0

>  <r_glide_ring_energy>  (1) 
0.37419102559369977

>  <r_i_docking_score>  (1) 
-4.1320864825121753

>  <r_i_glide_ecoul>  (1) 
0.14927475853947964

>  <r_i_glide_eff_state_penalty>  (1) 
-0

>  <r_i_glide_einternal>  (1) 
2.1077949423899032

>  <r_i_glide_emodel>  (1) 
-42.093277349191887

>  <r_i_glide_emodel_strain>  (1) 
0.0042722019099414865

>  <r_i_glide_energy>  (1) 
-34.787622020981516

>  <r_i_glide_erotb>  (1) 
0.15000188296614175

>  <r_i_glide_esite>  (1) 
-0.068966021494886606

>  <r_i_glide_evdw>  (1) 
-34.936896779520993

>  <r_i_glide_gscore>  (1) 
-4.1320864825121753

>  <r_i_glide_gscore_strain>  (1) 
0

>  <r_i_glide_hbond>  (1) 
0

>  <r_i_glide_ligand_efficiency>  (1) 
-0.093911056420731262

>  <r_i_glide_ligand_efficiency_ln>  (1) 
-0.8636962158057242

>  <r_i_glide_ligand_efficiency_sa>  (1) 
-0.33153874170364062

>  <r_i_glide_lipo>  (1) 
-1.8498769707044052

>  <r_i_glide_metal>  (1) 
-0

>  <r_i_glide_rewards>  (1) 
-0.63879174808389716

>  <r_lp_Energy>  (1) 
36.201265999999997

>  <r_lp_tautomer_probability>  (1) 
1

>  <s_epik_cmdline>  (1) 
J2VwaWtfcHl0aG9uJywgJy1waHQnLCAnMS4wJywgJy1waCcsICc3LjQnLCAnLXRuJywgJzgnLCAnLW1hJywgJzUwMCcsICctaW1hZScsICc8aW5maWxlLm1hZT4nLCAnLW9tYWUnLCAnPG91dGZpbGUubWFlPic=

>  <s_epik_input>  (1) 
W2NIXTFbY0hdbltjSF1jKGMxMilPQyg9TylbQ0BIXTJbQ0BdKFtDSDJdMykoW09IXSlTU1tDQEhdKFtDSDNdKVtDQEBIXShbQ0BIXTRPW0NASF0oW0NIMl1PTzUpW0NAQF0zNVtDSDNdKU42TihbQ0gyXVtDQEBdNChbQ0gzXSlbT0hdKUMoPVtDSDJdKVtDQEhdKEM2PU8pW0NIMl1bQ0BASF0oW0NIMl1bQ0gyXTcpW0NIMl1bQ0BASF03Rg==

>  <s_glide_docking_method>  (1) 
confgen

>  <s_i_glide_gridfile>  (1) 
gpcr_drd2_6luq_protein_autoprepared_prepared

>  <s_lp_Force_Field>  (1) 
S-OPLS

>  <s_lp_Variant>  (1) 
DiffSBDD_62_num_sample_100-1

>  <s_m_source_file>  (1) 
generated__ligand_DiffSBDD_2026-05-06_prepared.sdf

>  <GenAI_Model>  (1) 
DiffSBDD

>  <Protein>  (1) 
generic_title2

$$$$
DiffSBDD_62_num_sample_100
     RDKit          3D

  0  0  0  0  0  0  0  0  0  0999 V3000
M  V30 BEGIN CTAB
M  V30 COUNTS 82 88 0 0 1
M  V30 BEGIN ATOM
M  V30 1 C 11.409224 0.728289 -20.748989 0
M  V30 2 C 11.918755 2.411564 -22.649334 0
M  V30 3 S 11.280683 0.771419 -17.948976 0
M  V30 4 C 9.466274 2.190595 -21.833198 0 CFG=2
M  V30 5 C 8.131464 4.735254 -16.332400 0
M  V30 6 C 14.078914 2.232887 -18.221835 0
M  V30 7 C 6.263837 5.525504 -11.332482 0 CFG=1
M  V30 8 O 14.158772 -0.764091 -19.906945 0
M  V30 9 C 7.035081 3.763743 -20.336857 0 CFG=2
M  V30 10 O 8.911769 2.090703 -20.514681 0
M  V30 11 F 7.557673 5.369328 -11.043621 0
M  V30 12 C 8.336492 1.815081 -17.590454 0 CFG=2
M  V30 13 C 6.313439 4.445622 -13.458179 0
M  V30 14 N 6.755433 4.922295 -18.100976 0
M  V30 15 O 9.160494 0.174384 -22.829172 0
M  V30 16 C 14.223155 0.183476 -19.127422 0
M  V30 17 C 6.978336 6.567733 -14.817302 0
M  V30 18 C 5.877594 2.754468 -20.252666 0
M  V30 19 C 14.546798 4.035346 -16.693661 0
M  V30 20 O 7.116010 4.188252 -21.683337 0
M  V30 21 C 13.493301 1.587840 -19.426216 0 CFG=1
M  V30 22 N 7.881434 4.276837 -17.593601 0
M  V30 23 C 8.536684 1.428855 -22.781993 0
M  V30 24 C 6.053068 5.931817 -13.759862 0 CFG=2
M  V30 25 C 5.147913 6.728898 -17.474596 0
M  V30 26 C 8.432325 3.286455 -19.883421 0 CFG=2
M  V30 27 C 8.567184 3.189402 -18.330398 0 CFG=2
M  V30 28 C 15.433258 1.932119 -16.291650 0
M  V30 29 S 9.289133 0.383382 -18.192386 0
M  V30 30 C 11.925762 1.515958 -19.491670 0 CFG=1
M  V30 31 O 11.499480 2.848890 -19.625731 0
M  V30 32 C 14.822245 1.433738 -17.455906 0
M  V30 33 C 6.329045 5.818039 -17.189746 0
M  V30 34 C 6.103320 6.635149 -12.384922 0
M  V30 35 C 6.730413 5.048042 -19.560231 0
M  V30 36 C 7.085968 5.751200 -16.095129 0
M  V30 37 C 10.864344 1.503709 -21.986887 0 CFG=2
M  V30 38 C 6.881396 1.366365 -17.395559 0
M  V30 39 O 9.032472 4.367046 -15.585457 0
M  V30 40 N 15.316646 3.231532 -15.901572 0
M  V30 41 C 13.908308 3.579430 -17.871599 0
M  V30 42 O 14.939905 0.170315 -17.887325 0
M  V30 43 O 10.606962 0.503396 -22.958473 0
M  V30 44 C 5.799412 4.252490 -12.034641 0
M  V30 45 H 10.645032 0.009331 -20.464584 0
M  V30 46 H 12.205713 0.087589 -21.118122 0
M  V30 47 H 12.162078 3.281798 -22.041705 0
M  V30 48 H 12.845095 1.866725 -22.833811 0
M  V30 49 H 11.562733 2.782751 -23.610806 0
M  V30 50 H 9.528186 3.232516 -22.149702 0
M  V30 51 H 5.742256 5.734646 -10.397012 0
M  V30 52 H 8.723181 1.952127 -16.580491 0
M  V30 53 H 5.834916 3.776974 -14.173677 0
M  V30 54 H 7.383620 4.236234 -13.474460 0
M  V30 55 H 7.979155 6.684065 -14.402128 0
M  V30 56 H 6.628964 7.571839 -15.060604 0
M  V30 57 H 5.487439 2.677968 -19.240712 0
M  V30 58 H 5.034880 3.071827 -20.867463 0
M  V30 59 H 6.171506 1.759764 -20.585844 0
M  V30 60 H 14.446195 5.064023 -16.380239 0
M  V30 61 H 7.219644 3.426312 -22.231425 0
M  V30 62 H 13.910868 2.035615 -20.328013 0
M  V30 63 H 7.505111 1.357181 -22.440898 0
M  V30 64 H 8.549595 1.867476 -23.780593 0
M  V30 65 H 5.034835 6.003750 -14.133876 0
M  V30 66 H 4.462878 6.722867 -16.626764 0
M  V30 67 H 5.488923 7.753292 -17.625295 0
M  V30 68 H 9.124947 4.086572 -20.153724 0
M  V30 69 H 9.615909 3.400346 -18.132048 0
M  V30 70 H 16.039252 1.290966 -15.668298 0
M  V30 71 H 10.609512 2.819270 -19.948650 0
M  V30 72 H 6.914888 7.360119 -12.308395 0
M  V30 73 H 5.176232 7.184313 -12.215784 0
M  V30 74 H 7.450113 5.823351 -19.828771 0
M  V30 75 H 5.757904 5.425294 -19.874410 0
M  V30 76 H 6.235188 2.169356 -17.051596 0
M  V30 77 H 6.468633 0.942918 -18.309050 0
M  V30 78 H 6.828660 0.579340 -16.642491 0
M  V30 79 H 13.312274 4.246345 -18.476688 0
M  V30 80 H 4.711004 4.191280 -12.037022 0
M  V30 81 H 6.187184 3.349933 -11.563532 0
M  V30 82 H 4.581209 6.420140 -18.352035 0
M  V30 END ATOM
M  V30 BEGIN BOND
M  V30 1 1 10 4
M  V30 2 1 11 7
M  V30 3 2 16 8
M  V30 4 1 18 9
M  V30 5 1 9 20 CFG=3
M  V30 6 1 21 6
M  V30 7 1 21 16
M  V30 8 1 22 5
M  V30 9 1 22 14
M  V30 10 1 23 4
M  V30 11 1 23 15
M  V30 12 1 24 13
M  V30 13 1 24 17
M  V30 14 1 26 9
M  V30 15 1 26 10
M  V30 16 1 27 12
M  V30 17 1 27 22
M  V30 18 1 27 26
M  V30 19 1 29 3
M  V30 20 1 29 12
M  V30 21 1 30 1
M  V30 22 1 30 3
M  V30 23 1 30 21
M  V30 24 1 30 31 CFG=3
M  V30 25 2 32 6
M  V30 26 1 32 28
M  V30 27 1 33 14
M  V30 28 1 33 25
M  V30 29 1 34 7
M  V30 30 1 34 24
M  V30 31 1 35 9
M  V30 32 1 35 14
M  V30 33 1 36 5
M  V30 34 1 36 17
M  V30 35 2 36 33
M  V30 36 1 37 1
M  V30 37 1 37 2 CFG=3
M  V30 38 1 37 4
M  V30 39 1 38 12
M  V30 40 2 39 5
M  V30 41 1 40 19
M  V30 42 2 40 28
M  V30 43 1 41 6
M  V30 44 2 41 19
M  V30 45 1 42 16
M  V30 46 1 42 32
M  V30 47 1 43 15
M  V30 48 1 43 37
M  V30 49 1 44 7
M  V30 50 1 44 13
M  V30 51 1 45 1
M  V30 52 1 46 1
M  V30 53 1 47 2
M  V30 54 1 48 2
M  V30 55 1 49 2
M  V30 56 1 4 50 CFG=3
M  V30 57 1 7 51 CFG=1
M  V30 58 1 12 52 CFG=1
M  V30 59 1 53 13
M  V30 60 1 54 13
M  V30 61 1 55 17
M  V30 62 1 56 17
M  V30 63 1 57 18
M  V30 64 1 58 18
M  V30 65 1 59 18
M  V30 66 1 60 19
M  V30 67 1 61 20
M  V30 68 1 21 62 CFG=3
M  V30 69 1 63 23
M  V30 70 1 64 23
M  V30 71 1 24 65 CFG=3
M  V30 72 1 66 25
M  V30 73 1 67 25
M  V30 74 1 26 68 CFG=3
M  V30 75 1 27 69 CFG=3
M  V30 76 1 70 28
M  V30 77 1 71 31
M  V30 78 1 72 34
M  V30 79 1 73 34
M  V30 80 1 74 35
M  V30 81 1 75 35
M  V30 82 1 76 38
M  V30 83 1 77 38
M  V30 84 1 78 38
M  V30 85 1 79 41
M  V30 86 1 80 44
M  V30 87 1 81 44
M  V30 88 1 82 25
M  V30 END BOND
M  V30 END CTAB
M  END
>  <i_epik_Tot_Q>  (1) 
0

>  <i_epik_Tot_abs_Q>  (1) 
0

>  <i_i_glide_confnum>  (1) 
13

>  <i_i_glide_lignum>  (1) 
124

>  <i_i_glide_posenum>  (1) 
342

>  <i_i_glide_rotatable_bonds>  (1) 
5

>  <i_lp_mmshare_version>  (1) 
72125

>  <i_m_source_file_index>  (1) 
63

>  <i_f3d_flags>  (1) 
0

>  <num_sample>  (1) 
100

>  <b_lp_Chiralities_Consistent>  (1) 
1

>  <r_epik_Charging_Adjusted_Penalty>  (1) 
9.3393148110690276e-05

>  <r_epik_Ionization_Penalty>  (1) 
0.00038220122724724384

>  <r_epik_Ionization_Penalty_Charging>  (1) 
9.3393148110690276e-05

>  <r_epik_Ionization_Penalty_Neutral>  (1) 
0.00028880807913655358

>  <r_epik_State_Penalty>  (1) 
-0

>  <r_glide_ring_energy>  (1) 
0.37419102559369977

>  <r_i_docking_score>  (1) 
-4.1267882136417873

>  <r_i_glide_ecoul>  (1) 
0.21674922896021803

>  <r_i_glide_eff_state_penalty>  (1) 
-0

>  <r_i_glide_einternal>  (1) 
2.1976985382556391

>  <r_i_glide_emodel>  (1) 
-41.69781882054609

>  <r_i_glide_emodel_strain>  (1) 
0.38668306030385224

>  <r_i_glide_energy>  (1) 
-34.830250462838734

>  <r_i_glide_erotb>  (1) 
0.15000188296614175

>  <r_i_glide_esite>  (1) 
-0.071264946915279251

>  <r_i_glide_evdw>  (1) 
-35.046999691798952

>  <r_i_glide_gscore>  (1) 
-4.1267882136417873

>  <r_i_glide_gscore_strain>  (1) 
0

>  <r_i_glide_hbond>  (1) 
0

>  <r_i_glide_ligand_efficiency>  (1) 
-0.093790641219131526

>  <r_i_glide_ligand_efficiency_ln>  (1) 
-0.86258876203072643

>  <r_i_glide_ligand_efficiency_sa>  (1) 
-0.33111363409712508

>  <r_i_glide_lipo>  (1) 
-1.8511194440164627

>  <r_i_glide_metal>  (1) 
-0

>  <r_i_glide_rewards>  (1) 
-0.63456810543027209

>  <r_lp_Energy>  (1) 
36.201265999999997

>  <r_lp_tautomer_probability>  (1) 
1

>  <s_epik_cmdline>  (1) 
J2VwaWtfcHl0aG9uJywgJy1waHQnLCAnMS4wJywgJy1waCcsICc3LjQnLCAnLXRuJywgJzgnLCAnLW1hJywgJzUwMCcsICctaW1hZScsICc8aW5maWxlLm1hZT4nLCAnLW9tYWUnLCAnPG91dGZpbGUubWFlPic=

>  <s_epik_input>  (1) 
W2NIXTFbY0hdbltjSF1jKGMxMilPQyg9TylbQ0BIXTJbQ0BdKFtDSDJdMykoW09IXSlTU1tDQEhdKFtDSDNdKVtDQEBIXShbQ0BIXTRPW0NASF0oW0NIMl1PTzUpW0NAQF0zNVtDSDNdKU42TihbQ0gyXVtDQEBdNChbQ0gzXSlbT0hdKUMoPVtDSDJdKVtDQEhdKEM2PU8pW0NIMl1bQ0BASF0oW0NIMl1bQ0gyXTcpW0NIMl1bQ0BASF03Rg==

>  <s_glide_docking_method>  (1) 
confgen

>  <s_i_glide_gridfile>  (1) 
gpcr_drd2_6luq_protein_autoprepared_prepared

>  <s_lp_Force_Field>  (1) 
S-OPLS

>  <s_lp_Variant>  (1) 
DiffSBDD_62_num_sample_100-1

>  <s_m_source_file>  (1) 
generated__ligand_DiffSBDD_2026-05-06_prepared.sdf

>  <GenAI_Model>  (1) 
DiffSBDD

>  <Protein>  (1) 
generic_title2

$$$$
DiffSBDD_67_num_sample_100
     RDKit          3D

  0  0  0  0  0  0  0  0  0  0999 V3000
M  V30 BEGIN CTAB
M  V30 COUNTS 79 83 0 0 1
M  V30 BEGIN ATOM
M  V30 1 C 14.348057 6.471603 -20.778093 0 CFG=2
M  V30 2 C 16.873908 7.162845 -20.399793 0 CFG=1
M  V30 3 C 17.943581 7.672289 -21.383440 0
M  V30 4 C 17.162557 7.651398 -18.954379 0 CFG=1
M  V30 5 C 11.788260 4.376167 -19.226537 0
M  V30 6 C 12.353906 5.079357 -21.611486 0
M  V30 7 C 7.368967 6.207865 -13.659479 0
M  V30 8 C 8.841506 4.343502 -13.097666 0
M  V30 9 C 15.250571 9.195246 -18.170677 0 CFG=2
M  V30 10 C 7.897154 3.277906 -15.829846 0
M  V30 11 C 11.422952 4.878077 -17.816277 0
M  V30 12 C 7.279275 6.538995 -12.291695 0
M  V30 13 C 9.700085 5.119729 -16.074771 0
M  V30 14 O 7.034879 2.762146 -15.089955 0 CHG=-1
M  V30 15 F 9.432291 3.960140 -10.819960 0
M  V30 16 C 9.045614 4.872829 -19.810217 0
M  V30 17 O 8.484054 2.705666 -16.777679 0
M  V30 18 C 16.700386 9.108375 -18.694419 0
M  V30 19 C 14.428645 7.934109 -18.504809 0 CFG=2
M  V30 20 C 8.153990 5.106561 -14.067024 0
M  V30 21 C 15.059911 6.724908 -17.776365 0
M  V30 22 N 10.042217 5.281140 -20.802742 0
M  V30 23 C 9.150995 5.604870 -18.463115 0
M  V30 24 N 9.970845 4.820508 -17.507849 0 CFG=1 CHG=1
M  V30 25 C 16.598028 6.684549 -17.892755 0
M  V30 26 C 11.451210 5.365357 -20.374648 0 CFG=1
M  V30 27 C 12.822522 7.367456 -22.666822 0
M  V30 28 C 8.275755 4.755671 -15.556405 0 CFG=2
M  V30 29 O 14.634843 10.375297 -18.635320 0
M  V30 30 C 14.283591 7.777553 -20.015959 0 CFG=1
M  V30 31 C 15.472139 7.491189 -20.920183 0 CFG=2
M  V30 32 O 6.526211 7.604682 -11.891664 0
M  V30 33 C 7.974246 5.774288 -11.335113 0
M  V30 34 C 9.612805 6.512819 -21.461507 0
M  V30 35 C 8.755615 4.682341 -11.739116 0
M  V30 36 C 13.427306 6.140596 -21.954182 0 CFG=1
M  V30 37 H 14.648165 5.575667 -20.242107 0
M  V30 38 H 16.969619 6.076769 -20.407931 0
M  V30 39 H 17.923570 8.758500 -21.470797 0
M  V30 40 H 18.946433 7.384270 -21.066254 0
M  V30 41 H 17.789543 7.259717 -22.380890 0
M  V30 42 H 18.246353 7.634124 -18.828807 0
M  V30 43 H 11.376999 3.383978 -19.416929 0
M  V30 44 H 12.869091 4.233570 -19.213610 0
M  V30 45 H 12.861307 4.123790 -21.472580 0
M  V30 46 H 11.748093 4.910225 -22.503116 0
M  V30 47 H 6.841584 6.798998 -14.393304 0
M  V30 48 H 9.434870 3.502658 -13.397289 0
M  V30 49 H 6.634806 7.769304 -10.940290 0
M  V30 50 H 15.289330 9.283810 -17.091681 0
M  V30 51 H 11.793306 5.894641 -17.669495 0
M  V30 52 H 11.951878 4.252679 -17.095465 0
M  V30 53 H 9.907201 6.169284 -15.898196 0
M  V30 54 H 10.424234 4.569904 -15.472408 0
M  V30 55 H 9.110996 3.795560 -19.651772 0
M  V30 56 H 8.049562 5.025960 -20.228299 0
M  V30 57 H 17.358030 9.584501 -17.964632 0
M  V30 58 H 16.811430 9.697581 -19.605780 0
M  V30 59 H 13.418586 8.055179 -18.110104 0
M  V30 60 H 14.618080 5.785930 -18.104947 0
M  V30 61 H 14.802924 6.784742 -16.717384 0
M  V30 62 H 8.135575 5.705170 -18.089228 0
M  V30 63 H 9.532458 6.620243 -18.567190 0
M  V30 64 H 16.930544 5.664274 -18.087836 0
M  V30 65 H 17.034764 6.951281 -16.929538 0
M  V30 66 H 11.648681 6.375965 -20.013147 0
M  V30 67 H 12.158306 7.933758 -22.014913 0
M  V30 68 H 13.590668 8.047967 -23.033118 0
M  V30 69 H 12.242438 7.061049 -23.537678 0
M  V30 70 H 7.529454 5.353429 -16.076110 0
M  V30 71 H 13.745048 10.415825 -18.294344 0
M  V30 72 H 13.617460 8.539388 -20.413004 0
M  V30 73 H 15.487563 8.069801 -21.841315 0
M  V30 74 H 7.910539 6.031599 -10.288816 0
M  V30 75 H 10.221286 6.722661 -22.338864 0
M  V30 76 H 8.584009 6.431249 -21.813128 0
M  V30 77 H 9.670552 7.369847 -20.789448 0
M  V30 78 H 14.074273 5.668377 -22.694572 0
M  V30 79 H 9.659259 3.852401 -17.591230 0
M  V30 END ATOM
M  V30 BEGIN BOND
M  V30 1 1 3 2
M  V30 2 1 4 2
M  V30 3 1 11 5
M  V30 4 2 12 7
M  V30 5 1 14 10
M  V30 6 2 17 10
M  V30 7 1 18 4
M  V30 8 1 18 9
M  V30 9 1 19 9
M  V30 10 1 20 7
M  V30 11 2 20 8
M  V30 12 1 21 19
M  V30 13 1 22 16
M  V30 14 1 23 16
M  V30 15 1 24 11
M  V30 16 1 24 13
M  V30 17 1 24 23
M  V30 18 1 25 4
M  V30 19 1 25 21
M  V30 20 1 26 5
M  V30 21 1 26 6
M  V30 22 1 26 22
M  V30 23 1 28 10
M  V30 24 1 28 13
M  V30 25 1 28 20
M  V30 26 1 29 9
M  V30 27 1 30 1
M  V30 28 1 30 19
M  V30 29 1 31 1
M  V30 30 1 31 2
M  V30 31 1 31 30
M  V30 32 1 32 12
M  V30 33 1 33 12
M  V30 34 1 34 22
M  V30 35 1 35 8
M  V30 36 1 35 15
M  V30 37 2 35 33
M  V30 38 1 36 1
M  V30 39 1 36 6
M  V30 40 1 36 27
M  V30 41 1 1 37 CFG=1
M  V30 42 1 2 38 CFG=1
M  V30 43 1 39 3
M  V30 44 1 40 3
M  V30 45 1 41 3
M  V30 46 1 4 42 CFG=3
M  V30 47 1 43 5
M  V30 48 1 44 5
M  V30 49 1 45 6
M  V30 50 1 46 6
M  V30 51 1 47 7
M  V30 52 1 48 8
M  V30 53 1 49 32
M  V30 54 1 9 50 CFG=1
M  V30 55 1 51 11
M  V30 56 1 52 11
M  V30 57 1 53 13
M  V30 58 1 54 13
M  V30 59 1 55 16
M  V30 60 1 56 16
M  V30 61 1 57 18
M  V30 62 1 58 18
M  V30 63 1 19 59 CFG=1
M  V30 64 1 60 21
M  V30 65 1 61 21
M  V30 66 1 62 23
M  V30 67 1 63 23
M  V30 68 1 64 25
M  V30 69 1 65 25
M  V30 70 1 26 66 CFG=1
M  V30 71 1 67 27
M  V30 72 1 68 27
M  V30 73 1 69 27
M  V30 74 1 28 70 CFG=3
M  V30 75 1 71 29
M  V30 76 1 30 72 CFG=3
M  V30 77 1 31 73 CFG=3
M  V30 78 1 74 33
M  V30 79 1 75 34
M  V30 80 1 76 34
M  V30 81 1 77 34
M  V30 82 1 36 78 CFG=3
M  V30 83 1 24 79 CFG=1
M  V30 END BOND
M  V30 END CTAB
M  END
>  <i_epik_Tot_Q>  (1) 
0

>  <i_epik_Tot_abs_Q>  (1) 
2

>  <i_i_glide_confnum>  (1) 
120

>  <i_i_glide_lignum>  (1) 
134

>  <i_i_glide_posenum>  (1) 
374

>  <i_i_glide_rotatable_bonds>  (1) 
9

>  <i_lp_mmshare_version>  (1) 
72125

>  <i_m_source_file_index>  (1) 
68

>  <i_f3d_flags>  (1) 
0

>  <num_sample>  (1) 
100

>  <b_lp_Chiralities_Consistent>  (1) 
1

>  <r_epik_Charging_Adjusted_Penalty>  (1) 
0.12241089881330544

>  <r_epik_Ionization_Penalty>  (1) 
0.01898901772236716

>  <r_epik_Ionization_Penalty_Charging>  (1) 
0.00080544074301080722

>  <r_epik_Ionization_Penalty_Neutral>  (1) 
0.018183576979356353

>  <r_epik_State_Penalty>  (1) 
0.12160545807029463

>  <r_glide_ring_energy>  (1) 
0.36222063080148631

>  <r_i_docking_score>  (1) 
-4.125712067836468

>  <r_i_glide_ecoul>  (1) 
-11.101055026138887

>  <r_i_glide_eff_state_penalty>  (1) 
0.12160545807029463

>  <r_i_glide_einternal>  (1) 
27.365305124840926

>  <r_i_glide_emodel>  (1) 
-20.855353300698937

>  <r_i_glide_emodel_strain>  (1) 
1.2915768414676165

>  <r_i_glide_energy>  (1) 
-30.966130874198477

>  <r_i_glide_erotb>  (1) 
0.48522832276191719

>  <r_i_glide_esite>  (1) 
0

>  <r_i_glide_evdw>  (1) 
-19.86507584805959

>  <r_i_glide_gscore>  (1) 
-4.2473175259067624

>  <r_i_glide_gscore_strain>  (1) 
0

>  <r_i_glide_hbond>  (1) 
-0.45023255375988941

>  <r_i_glide_ligand_efficiency>  (1) 
-0.11460311299545745

>  <r_i_glide_ligand_efficiency_ln>  (1) 
-0.90011890934308059

>  <r_i_glide_ligand_efficiency_sa>  (1) 
-0.37841114160785094

>  <r_i_glide_lipo>  (1) 
-1.154719688957214

>  <r_i_glide_metal>  (1) 
-0

>  <r_i_glide_rewards>  (1) 
-0.46918155962776376

>  <r_lp_Energy>  (1) 
56.711821999999998

>  <r_lp_tautomer_probability>  (1) 
0.99999999999736477

>  <s_epik_cmdline>  (1) 
J2VwaWtfcHl0aG9uJywgJy1waHQnLCAnMS4wJywgJy1waCcsICc3LjQnLCAnLXRuJywgJzgnLCAnLW1hJywgJzUwMCcsICctaW1hZScsICc8aW5maWxlLm1hZT4nLCAnLW9tYWUnLCAnPG91dGZpbGUubWFlPic=

>  <s_epik_input>  (1) 
W0NIM11bQ0BASF0oW0NAQEhdMTIpW0NAQEhdM1tDQEhdKFtDQEhdKFtDQEBIXShbQ0gyXTEpW09IXSlbQ0gyXVtDSDJdMilbQ0BIXTNbQ0BIXShbQ0gzXSlbQ0gyXVtDQEBIXTRbQ0gyXVtDSDJdTihbQ0gyXVtDSDJdTjRbQ0gzXSlbQ0gyXVtDQEBIXShDKD1PKVtPSF0pQyg9W0NIXUM1PU8pW0NIMl1DKEYpPVtDSF01

>  <s_glide_docking_method>  (1) 
confgen

>  <s_i_glide_gridfile>  (1) 
gpcr_drd2_6luq_protein_autoprepared_prepared

>  <s_lp_Force_Field>  (1) 
S-OPLS

>  <s_lp_Variant>  (1) 
DiffSBDD_67_num_sample_100-2

>  <s_m_source_file>  (1) 
generated__ligand_DiffSBDD_2026-05-06_prepared.sdf

>  <GenAI_Model>  (1) 
DiffSBDD

>  <Protein>  (1) 
generic_title2

$$$$
DiffSBDD_60_num_sample_100
     RDKit          3D

  0  0  0  0  0  0  0  0  0  0999 V3000
M  V30 BEGIN CTAB
M  V30 COUNTS 39 41 0 0 1
M  V30 BEGIN ATOM
M  V30 1 C 14.597172 8.572006 -22.102603 0
M  V30 2 N 14.671591 8.686337 -17.891667 0
M  V30 3 C 18.246146 9.717983 -19.887422 0
M  V30 4 C 18.342718 9.330641 -18.610071 0
M  V30 5 N 14.270556 7.993250 -20.816888 0
M  V30 6 C 13.875168 6.356928 -18.488226 0
M  V30 7 C 15.762972 9.683001 -19.874507 0 CFG=2
M  V30 8 N 17.043505 9.874969 -20.539323 0
M  V30 9 C 13.132620 7.628193 -16.355590 0
M  V30 10 C 17.126088 9.015362 -17.757544 0
M  V30 11 C 12.877341 7.905026 -20.393729 0
M  V30 12 C 14.258247 7.381444 -17.378505 0 CFG=2
M  V30 13 C 15.910250 8.685273 -18.671696 0 CFG=1
M  V30 14 C 14.615746 9.415582 -20.856221 0 CFG=1
M  V30 15 C 12.702483 6.691327 -19.453430 0
M  V30 16 C 12.798291 6.399786 -15.499900 0
M  V30 17 H 15.557980 8.313962 -22.542664 0
M  V30 18 H 13.785795 8.714323 -22.813861 0
M  V30 19 H 13.917828 9.047046 -18.461635 0
M  V30 20 H 19.111230 9.940285 -20.495445 0
M  V30 21 H 13.622283 5.418523 -17.995800 0
M  V30 22 H 14.754339 6.091508 -19.073159 0
M  V30 23 H 15.537485 10.656896 -19.438790 0
M  V30 24 H 12.234849 7.987784 -16.856623 0
M  V30 25 H 13.434839 8.430356 -15.681932 0
M  V30 26 H 16.920537 9.876521 -17.120468 0
M  V30 27 H 17.352340 8.171716 -17.105415 0
M  V30 28 H 12.568215 8.791432 -19.839223 0
M  V30 29 H 12.212950 7.820661 -21.254518 0
M  V30 30 H 15.107096 6.969326 -16.831759 0
M  V30 31 H 16.106266 7.700827 -19.091919 0
M  V30 32 H 13.834837 10.169289 -20.820822 0
M  V30 33 H 12.543952 5.813891 -20.081041 0
M  V30 34 H 11.777622 6.807664 -18.888016 0
M  V30 35 H 12.092160 6.653190 -14.709277 0
M  V30 36 H 13.693867 5.998222 -15.025975 0
M  V30 37 H 12.347515 5.604991 -16.093474 0
M  V30 38 H 19.311833 9.231313 -18.143422 0
M  V30 39 H 17.030907 10.176986 -21.502904 0
M  V30 END ATOM
M  V30 BEGIN BOND
M  V30 1 2 4 3
M  V30 2 1 5 1
M  V30 3 1 8 3
M  V30 4 1 8 7
M  V30 5 1 10 4
M  V30 6 1 11 5
M  V30 7 1 12 2
M  V30 8 1 12 6
M  V30 9 1 12 9
M  V30 10 1 13 2
M  V30 11 1 13 7
M  V30 12 1 13 10
M  V30 13 1 14 1
M  V30 14 1 14 5
M  V30 15 1 14 7
M  V30 16 1 15 6
M  V30 17 1 15 11
M  V30 18 1 16 9
M  V30 19 1 17 1
M  V30 20 1 18 1
M  V30 21 1 19 2
M  V30 22 1 20 3
M  V30 23 1 21 6
M  V30 24 1 22 6
M  V30 25 1 7 23 CFG=1
M  V30 26 1 24 9
M  V30 27 1 25 9
M  V30 28 1 26 10
M  V30 29 1 27 10
M  V30 30 1 28 11
M  V30 31 1 29 11
M  V30 32 1 12 30 CFG=1
M  V30 33 1 13 31 CFG=3
M  V30 34 1 14 32 CFG=3
M  V30 35 1 33 15
M  V30 36 1 34 15
M  V30 37 1 35 16
M  V30 38 1 36 16
M  V30 39 1 37 16
M  V30 40 1 38 4
M  V30 41 1 39 8
M  V30 END BOND
M  V30 END CTAB
M  END
>  <i_epik_Tot_Q>  (1) 
0

>  <i_epik_Tot_abs_Q>  (1) 
0

>  <i_i_glide_confnum>  (1) 
1

>  <i_i_glide_lignum>  (1) 
120

>  <i_i_glide_posenum>  (1) 
353

>  <i_i_glide_rotatable_bonds>  (1) 
1

>  <i_lp_mmshare_version>  (1) 
72125

>  <i_m_source_file_index>  (1) 
61

>  <i_f3d_flags>  (1) 
0

>  <num_sample>  (1) 
100

>  <b_lp_Chiralities_Consistent>  (1) 
1

>  <r_epik_Charging_Adjusted_Penalty>  (1) 
4.9692066631576726e-06

>  <r_epik_Ionization_Penalty>  (1) 
2.1336840305667621

>  <r_epik_Ionization_Penalty_Charging>  (1) 
4.9692066631576726e-06

>  <r_epik_Ionization_Penalty_Neutral>  (1) 
2.1336790613600991

>  <r_epik_State_Penalty>  (1) 
-0

>  <r_glide_ring_energy>  (1) 
0

>  <r_i_docking_score>  (1) 
-4.118130884217134

>  <r_i_glide_ecoul>  (1) 
-1.8655008584507158

>  <r_i_glide_eff_state_penalty>  (1) 
-0

>  <r_i_glide_einternal>  (1) 
0.1840584697776364

>  <r_i_glide_emodel>  (1) 
-21.299169922758672

>  <r_i_glide_emodel_strain>  (1) 
0

>  <r_i_glide_energy>  (1) 
-17.023959989926901

>  <r_i_glide_erotb>  (1) 
0

>  <r_i_glide_esite>  (1) 
0

>  <r_i_glide_evdw>  (1) 
-15.158459131476185

>  <r_i_glide_gscore>  (1) 
-4.118130884217134

>  <r_i_glide_gscore_strain>  (1) 
0

>  <r_i_glide_hbond>  (1) 
0

>  <r_i_glide_ligand_efficiency>  (1) 
-0.25738318026357088

>  <r_i_glide_ligand_efficiency_ln>  (1) 
-1.0915928523934635

>  <r_i_glide_ligand_efficiency_sa>  (1) 
-0.64856497340591923

>  <r_i_glide_lipo>  (1) 
-1.1804852534211712

>  <r_i_glide_metal>  (1) 
-0

>  <r_i_glide_rewards>  (1) 
-1.8998975454545457

>  <r_lp_Energy>  (1) 
35.391235999999999

>  <r_lp_tautomer_probability>  (1) 
1

>  <s_epik_Chemistry_Notes>  (1) 
This compound has an imine and may undergo hydrolysis.

>  <s_epik_cmdline>  (1) 
J2VwaWtfcHl0aG9uJywgJy1waHQnLCAnMS4wJywgJy1waCcsICc3LjQnLCAnLXRuJywgJzgnLCAnLW1hJywgJzUwMCcsICctaW1hZScsICc8aW5maWxlLm1hZT4nLCAnLW9tYWUnLCAnPG91dGZpbGUubWFlPic=

>  <s_epik_input>  (1) 
W05IXTFbQ0hdPVtDSF1bQ0gyXVtDQEhdKFtDQEBIXTFbQ0BIXShOMjMpW0NIMl0yKVtOSF1bQ0BASF0oW0NIMl1bQ0gzXSlbQ0gyXVtDSDJdW0NIMl0z

>  <s_glide_docking_method>  (1) 
confgen

>  <s_i_glide_gridfile>  (1) 
gpcr_drd2_6luq_protein_autoprepared_prepared

>  <s_lp_Force_Field>  (1) 
S-OPLS

>  <s_lp_Variant>  (1) 
DiffSBDD_60_num_sample_100-1

>  <s_m_source_file>  (1) 
generated__ligand_DiffSBDD_2026-05-06_prepared.sdf

>  <GenAI_Model>  (1) 
DiffSBDD

>  <Protein>  (1) 
generic_title2

$$$$
DiffSBDD_29_num_sample_100
     RDKit          3D

  0  0  0  0  0  0  0  0  0  0999 V3000
M  V30 BEGIN CTAB
M  V30 COUNTS 73 77 0 0 1
M  V30 BEGIN ATOM
M  V30 1 F 5.757569 1.424263 -20.488752 0
M  V30 2 O 6.240287 3.411788 -11.891705 0
M  V30 3 N 7.690921 7.495316 -11.891663 0
M  V30 4 C 9.555897 5.350344 -8.046595 0
M  V30 5 N 6.541595 3.851588 -21.992921 0
M  V30 6 C 8.263795 5.351159 -22.961212 0
M  V30 7 C 6.571402 4.756151 -13.827767 0 CFG=1
M  V30 8 C 8.816291 7.347083 -21.644413 0
M  V30 9 C 7.349356 4.993073 -21.960951 0
M  V30 10 C 6.454908 7.769364 -12.461522 0
M  V30 11 C 8.046090 5.117474 -10.146324 0
M  V30 12 N 5.832829 5.989000 -15.749376 0
M  V30 13 C 10.203694 7.768401 -7.826077 0 CFG=1
M  V30 14 O 9.920209 8.916059 -7.065808 0
M  V30 15 O 3.919243 7.221508 -16.973362 0
M  V30 16 C 9.992779 6.784359 -11.680119 0
M  V30 17 C 10.137220 6.711882 -10.140028 0 CFG=2
M  V30 18 C 5.784740 3.770333 -20.674274 0 CFG=2
M  V30 19 C 5.755994 5.551496 -18.824116 0
M  V30 20 C 7.605048 3.843567 -14.522341 0
M  V30 21 C 5.907247 7.226983 -13.577530 0
M  V30 22 C 6.672952 4.699910 -12.279892 0 CFG=2
M  V30 23 N 6.131227 6.751590 -18.209350 0
M  V30 24 C 7.887921 6.939111 -20.655047 0
M  V30 25 C 6.224382 5.105406 -20.013476 0
M  V30 26 C 9.434783 5.447025 -9.571688 0 CFG=1
M  V30 27 C 9.008233 6.545065 -22.803649 0
M  V30 28 C 9.309699 6.649800 -7.292847 0
M  V30 29 F 7.476346 2.460043 -19.649999 0
M  V30 30 C 8.597262 6.423647 -12.237752 0 CFG=1
M  V30 31 C 9.979928 8.019556 -9.334040 0
M  V30 32 C 6.541958 6.173459 -14.477905 0 CFG=1
M  V30 33 C 8.064994 5.071787 -11.691733 0 CFG=1
M  V30 34 C 6.160661 2.525919 -19.855827 0
M  V30 35 C 7.174123 5.738667 -20.859715 0
M  V30 36 O 6.029492 8.522316 -16.291656 0
M  V30 37 S 5.372368 7.296615 -16.762540 0
M  V30 38 H 6.191932 3.392453 -10.947101 0
M  V30 39 H 8.896449 4.571322 -7.669862 0
M  V30 40 H 10.571313 5.023750 -7.820551 0
M  V30 41 H 6.876998 3.003412 -22.427517 0
M  V30 42 H 8.393216 4.732444 -23.836680 0
M  V30 43 H 5.591592 4.317987 -14.032322 0
M  V30 44 H 9.380302 8.260739 -21.516950 0
M  V30 45 H 5.905558 8.511188 -11.891739 0
M  V30 46 H 7.727346 4.166960 -9.751196 0
M  V30 47 H 7.270803 5.769320 -9.774032 0
M  V30 48 H 5.057275 5.337908 -15.642023 0
M  V30 49 H 11.249343 7.506280 -7.657670 0
M  V30 50 H 8.989975 9.079627 -7.135296 0
M  V30 51 H 10.300310 7.766337 -12.042771 0
M  V30 52 H 10.701241 6.078055 -12.115358 0
M  V30 53 H 11.195994 6.569333 -9.960613 0
M  V30 54 H 4.711371 3.795472 -20.867013 0
M  V30 55 H 5.034844 4.992982 -18.255322 0
M  V30 56 H 8.618920 4.229096 -14.412367 0
M  V30 57 H 7.401645 3.755390 -15.589390 0
M  V30 58 H 7.586335 2.834277 -14.109065 0
M  V30 59 H 5.913402 5.338528 -11.830064 0
M  V30 60 H 6.882905 7.318025 -18.592883 0
M  V30 61 H 7.748051 7.532591 -19.775188 0
M  V30 62 H 10.006996 4.599206 -9.939395 0
M  V30 63 H 9.716817 6.846294 -23.560581 0
M  V30 64 H 9.494086 6.493562 -6.228598 0
M  V30 65 H 8.261996 6.922878 -7.381779 0
M  V30 66 H 8.767948 6.367401 -13.301096 0
M  V30 67 H 9.034558 8.495799 -9.523413 0
M  V30 68 H 10.717154 8.744731 -9.682432 0
M  V30 69 H 7.521138 6.534724 -14.775702 0
M  V30 70 H 8.768742 4.294107 -11.991993 0
M  V30 71 H 5.677104 2.525482 -18.878425 0
M  V30 72 H 4.936247 7.563922 -13.875640 0
M  V30 73 H 7.864919 7.919598 -10.980190 0
M  V30 END ATOM
M  V30 BEGIN BOND
M  V30 1 1 9 5
M  V30 2 2 9 6
M  V30 3 1 10 3
M  V30 4 1 14 13
M  V30 5 1 17 16
M  V30 6 1 18 5
M  V30 7 1 20 7
M  V30 8 2 21 10
M  V30 9 1 22 2
M  V30 10 1 22 7
M  V30 11 1 23 19
M  V30 12 1 24 8
M  V30 13 1 25 18
M  V30 14 2 25 19
M  V30 15 1 26 4
M  V30 16 1 26 11
M  V30 17 1 26 17
M  V30 18 1 27 6
M  V30 19 2 27 8
M  V30 20 1 28 4
M  V30 21 1 28 13
M  V30 22 1 30 3
M  V30 23 1 30 16
M  V30 24 1 31 13
M  V30 25 1 31 17
M  V30 26 1 32 7
M  V30 27 1 32 12
M  V30 28 1 32 21
M  V30 29 1 33 11
M  V30 30 1 33 22
M  V30 31 1 33 30
M  V30 32 1 34 1
M  V30 33 1 34 18
M  V30 34 1 34 29
M  V30 35 1 35 9
M  V30 36 2 35 24
M  V30 37 1 35 25
M  V30 38 1 37 12
M  V30 39 2 37 15
M  V30 40 1 37 23
M  V30 41 2 37 36
M  V30 42 1 38 2
M  V30 43 1 39 4
M  V30 44 1 40 4
M  V30 45 1 41 5
M  V30 46 1 42 6
M  V30 47 1 7 43 CFG=1
M  V30 48 1 44 8
M  V30 49 1 45 10
M  V30 50 1 46 11
M  V30 51 1 47 11
M  V30 52 1 48 12
M  V30 53 1 13 49 CFG=3
M  V30 54 1 50 14
M  V30 55 1 51 16
M  V30 56 1 52 16
M  V30 57 1 17 53 CFG=3
M  V30 58 1 18 54 CFG=3
M  V30 59 1 55 19
M  V30 60 1 56 20
M  V30 61 1 57 20
M  V30 62 1 58 20
M  V30 63 1 22 59 CFG=1
M  V30 64 1 60 23
M  V30 65 1 61 24
M  V30 66 1 26 62 CFG=3
M  V30 67 1 63 27
M  V30 68 1 64 28
M  V30 69 1 65 28
M  V30 70 1 30 66 CFG=3
M  V30 71 1 67 31
M  V30 72 1 68 31
M  V30 73 1 32 69 CFG=3
M  V30 74 1 33 70 CFG=1
M  V30 75 1 71 34
M  V30 76 1 72 21
M  V30 77 1 73 3
M  V30 END BOND
M  V30 END CTAB
M  END
>  <i_epik_Tot_Q>  (1) 
0

>  <i_epik_Tot_abs_Q>  (1) 
0

>  <i_i_glide_confnum>  (1) 
97

>  <i_i_glide_lignum>  (1) 
52

>  <i_i_glide_posenum>  (1) 
103

>  <i_i_glide_rotatable_bonds>  (1) 
7

>  <i_lp_mmshare_version>  (1) 
72125

>  <i_m_source_file_index>  (1) 
30

>  <i_f3d_flags>  (1) 
0

>  <num_sample>  (1) 
100

>  <b_lp_Chiralities_Consistent>  (1) 
1

>  <r_epik_Charging_Adjusted_Penalty>  (1) 
1.5459132844328078e-07

>  <r_epik_Ionization_Penalty>  (1) 
1.5952634643945804

>  <r_epik_Ionization_Penalty_Charging>  (1) 
1.5459132844328078e-07

>  <r_epik_Ionization_Penalty_Neutral>  (1) 
1.595263309803252

>  <r_epik_State_Penalty>  (1) 
-0

>  <r_glide_ring_energy>  (1) 
0

>  <r_i_docking_score>  (1) 
-4.1150021613652683

>  <r_i_glide_ecoul>  (1) 
-3.2802752901610153

>  <r_i_glide_eff_state_penalty>  (1) 
-0

>  <r_i_glide_einternal>  (1) 
3.9397964144673949

>  <r_i_glide_emodel>  (1) 
-36.346671421455376

>  <r_i_glide_emodel_strain>  (1) 
0.30605120863573632

>  <r_i_glide_energy>  (1) 
-35.632022989433899

>  <r_i_glide_erotb>  (1) 
0.28486469644810641

>  <r_i_glide_esite>  (1) 
-0.10000000000000001

>  <r_i_glide_evdw>  (1) 
-32.351747699272885

>  <r_i_glide_gscore>  (1) 
-4.1150021613652683

>  <r_i_glide_gscore_strain>  (1) 
0

>  <r_i_glide_hbond>  (1) 
-0.10109649334872092

>  <r_i_glide_ligand_efficiency>  (1) 
-0.11121627463149374

>  <r_i_glide_ligand_efficiency_ln>  (1) 
-0.89244749946230062

>  <r_i_glide_ligand_efficiency_sa>  (1) 
-0.37059730058572099

>  <r_i_glide_lipo>  (1) 
-1.0263110838648679

>  <r_i_glide_metal>  (1) 
-0

>  <r_i_glide_rewards>  (1) 
-1.0628306021119895

>  <r_lp_Energy>  (1) 
37.495854000000001

>  <r_lp_tautomer_probability>  (1) 
1

>  <s_epik_Chemistry_Notes>  (1) 
This compound has an imine and may undergo hydrolysis.

>  <s_epik_cmdline>  (1) 
J2VwaWtfcHl0aG9uJywgJy1waHQnLCAnMS4wJywgJy1waCcsICc3LjQnLCAnLXRuJywgJzgnLCAnLW1hJywgJzUwMCcsICctaW1hZScsICc8aW5maWxlLm1hZT4nLCAnLW9tYWUnLCAnPG91dGZpbGUubWFlPic=

>  <s_epik_input>  (1) 
W2NIXTFbY0hdW2NIXVtjSF1jKGMxMilDKC9bQ0BASF0oW05IXTIpW0NIXShGKUYpPVtDSF1cW05IXVMoPU8pKD1PKVtOSF1bQ0BIXShbQ0BASF0oW0NIM10pW0NASF0zW09IXSlbQ0gyXVxbQ0hdPU5cW0NAQEhdKFtDSDJdNClbQ0BIXTNbQ0gyXVtDQEBIXShbQ0BASF00NSlbQ0gyXVtDSDJdW0NASF0oW09IXSlbQ0gyXTU=

>  <s_glide_docking_method>  (1) 
confgen

>  <s_i_glide_gridfile>  (1) 
gpcr_drd2_6luq_protein_autoprepared_prepared

>  <s_lp_Force_Field>  (1) 
S-OPLS

>  <s_lp_Variant>  (1) 
DiffSBDD_29_num_sample_100-2

>  <s_m_source_file>  (1) 
generated__ligand_DiffSBDD_2026-05-06_prepared.sdf

>  <GenAI_Model>  (1) 
DiffSBDD

>  <Protein>  (1) 
generic_title2

$$$$
DiffSBDD_76_num_sample_100
     RDKit          3D

  0  0  0  0  0  0  0  0  0  0999 V3000
M  V30 BEGIN CTAB
M  V30 COUNTS 78 81 0 0 1
M  V30 BEGIN ATOM
M  V30 1 C 6.202508 3.319284 -13.272878 0
M  V30 2 C 8.388942 0.922745 -17.067846 0
M  V30 3 C 6.237564 6.925922 -13.501361 0
M  V30 4 N 6.734088 4.508470 -13.976034 0 CFG=2 CHG=1
M  V30 5 C 8.833641 0.503599 -18.362656 0
M  V30 6 C 11.092857 7.784765 -5.225368 0
M  V30 7 C 11.230746 6.544286 -5.695820 0
M  V30 8 C 11.099718 7.437171 -9.230153 0 CFG=1
M  V30 9 C 7.623346 1.798483 -14.534924 0
M  V30 10 N 9.033021 6.823684 -10.755338 0 CFG=2 CHG=1
M  V30 11 C 9.019166 5.369437 -10.389391 0
M  V30 12 C 7.718468 2.747700 -15.564567 0
M  V30 13 C 10.672616 6.093981 -7.037850 0
M  V30 14 C 8.269583 3.240785 -17.910469 0
M  V30 15 C 7.883285 0.456181 -14.828722 0
M  V30 16 C 11.307237 7.237505 -11.794420 0
M  V30 17 C 7.243333 2.223706 -13.138819 0
M  V30 18 C 8.322184 7.171872 -12.035495 0
M  V30 19 N 8.233748 0.023338 -16.053917 0
M  V30 20 O 9.441354 4.700970 -11.570729 0
M  V30 21 O 9.644114 1.944857 -21.714613 0
M  V30 22 C 10.170713 7.253261 -7.968000 0 CFG=1
M  V30 23 C 8.995351 1.467614 -19.423341 0
M  V30 24 C 6.810660 6.859436 -12.069656 0
M  V30 25 N 13.513546 8.237711 -9.495669 0 CHG=1
M  V30 26 C 10.350420 7.541929 -10.613159 0 CFG=2
M  V30 27 O 9.109342 -0.823130 -18.566071 0 CHG=-1
M  V30 28 C 5.706936 5.587732 -14.032481 0
M  V30 29 C 8.119484 2.312844 -16.858157 0
M  V30 30 C 7.405743 4.228840 -15.284880 0
M  V30 31 C 12.153998 8.580171 -9.035483 0
M  V30 32 C 10.410920 8.798473 -5.980455 0
M  V30 33 C 9.960641 8.569278 -7.226270 0
M  V30 34 C 9.478622 1.102055 -20.832000 0
M  V30 35 C 8.705357 2.822251 -19.172471 0
M  V30 36 C 9.767440 -0.369189 -21.147681 0
M  V30 37 H 5.804304 3.633902 -12.306826 0
M  V30 38 H 5.420559 2.884262 -13.885822 0
M  V30 39 H 5.400300 7.627889 -13.475685 0
M  V30 40 H 6.960388 7.349916 -14.203153 0
M  V30 41 H 11.495759 8.028562 -4.254860 0
M  V30 42 H 11.744231 5.797692 -5.102806 0
M  V30 43 H 11.738361 6.566835 -9.306594 0
M  V30 44 H 8.018099 5.052021 -10.095201 0
M  V30 45 H 9.690399 5.132835 -9.568212 0
M  V30 46 H 9.848813 5.399668 -6.845938 0
M  V30 47 H 11.433009 5.478055 -7.508307 0
M  V30 48 H 8.063432 4.284136 -17.746302 0
M  V30 49 H 7.816014 -0.293417 -14.055536 0
M  V30 50 H 12.254010 7.766368 -11.718880 0
M  V30 51 H 11.546091 6.182238 -11.887014 0
M  V30 52 H 10.881214 7.515399 -12.754272 0
M  V30 53 H 6.850599 1.377522 -12.572967 0
M  V30 54 H 8.129512 2.594622 -12.622865 0
M  V30 55 H 8.427532 8.242242 -12.223936 0
M  V30 56 H 8.805781 6.678729 -12.878539 0
M  V30 57 H 9.908177 3.908112 -11.347095 0
M  V30 58 H 9.156877 6.984972 -8.258966 0
M  V30 59 H 6.568961 5.904343 -11.598474 0
M  V30 60 H 6.284001 7.621329 -11.494115 0
M  V30 61 H 14.072541 9.091580 -9.488556 0
M  V30 62 H 13.942610 7.575383 -8.867331 0
M  V30 63 H 10.064153 8.584458 -10.703341 0
M  V30 64 H 4.825152 5.305417 -13.458476 0
M  V30 65 H 5.317618 5.725850 -15.041790 0
M  V30 66 H 6.749899 4.575330 -16.083153 0
M  V30 67 H 8.320435 4.825758 -15.340296 0
M  V30 68 H 11.836524 9.508221 -9.513658 0
M  V30 69 H 12.320826 8.820060 -7.987958 0
M  V30 70 H 10.252191 9.763763 -5.527201 0
M  V30 71 H 9.435520 9.346778 -7.760937 0
M  V30 72 H 8.826049 3.552538 -19.964471 0
M  V30 73 H 8.891713 -0.996823 -20.973601 0
M  V30 74 H 10.042361 -0.458883 -22.202453 0
M  V30 75 H 10.610687 -0.734732 -20.562406 0
M  V30 76 H 13.494643 7.870136 -10.432863 0
M  V30 77 H 7.472567 4.838726 -13.370748 0
M  V30 78 H 8.429101 7.256328 -10.048203 0
M  V30 END ATOM
M  V30 BEGIN BOND
M  V30 1 1 4 1
M  V30 2 2 5 2
M  V30 3 2 7 6
M  V30 4 1 11 10
M  V30 5 2 12 9
M  V30 6 1 13 7
M  V30 7 1 15 9
M  V30 8 1 17 1
M  V30 9 1 17 9
M  V30 10 1 18 10
M  V30 11 1 19 2
M  V30 12 2 19 15
M  V30 13 1 20 11
M  V30 14 1 22 8
M  V30 15 1 22 13
M  V30 16 1 23 5
M  V30 17 1 24 3
M  V30 18 1 24 18
M  V30 19 1 26 8
M  V30 20 1 26 10
M  V30 21 1 26 16
M  V30 22 1 27 5
M  V30 23 1 28 3
M  V30 24 1 28 4
M  V30 25 1 29 2
M  V30 26 1 29 12
M  V30 27 2 29 14
M  V30 28 1 30 4
M  V30 29 1 30 12
M  V30 30 1 31 8
M  V30 31 1 31 25
M  V30 32 1 32 6
M  V30 33 1 33 22
M  V30 34 2 33 32
M  V30 35 2 34 21
M  V30 36 1 34 23
M  V30 37 1 35 14
M  V30 38 2 35 23
M  V30 39 1 36 34
M  V30 40 1 37 1
M  V30 41 1 38 1
M  V30 42 1 39 3
M  V30 43 1 40 3
M  V30 44 1 41 6
M  V30 45 1 42 7
M  V30 46 1 8 43 CFG=3
M  V30 47 1 44 11
M  V30 48 1 45 11
M  V30 49 1 46 13
M  V30 50 1 47 13
M  V30 51 1 48 14
M  V30 52 1 49 15
M  V30 53 1 50 16
M  V30 54 1 51 16
M  V30 55 1 52 16
M  V30 56 1 53 17
M  V30 57 1 54 17
M  V30 58 1 55 18
M  V30 59 1 56 18
M  V30 60 1 57 20
M  V30 61 1 22 58 CFG=3
M  V30 62 1 59 24
M  V30 63 1 60 24
M  V30 64 1 61 25
M  V30 65 1 62 25
M  V30 66 1 26 63 CFG=3
M  V30 67 1 64 28
M  V30 68 1 65 28
M  V30 69 1 66 30
M  V30 70 1 67 30
M  V30 71 1 68 31
M  V30 72 1 69 31
M  V30 73 1 70 32
M  V30 74 1 71 33
M  V30 75 1 72 35
M  V30 76 1 73 36
M  V30 77 1 74 36
M  V30 78 1 75 36
M  V30 79 1 76 25
M  V30 80 1 4 77 CFG=1
M  V30 81 1 10 78 CFG=1
M  V30 END BOND
M  V30 END CTAB
M  END
>  <i_epik_Tot_Q>  (1) 
2

>  <i_epik_Tot_abs_Q>  (1) 
4

>  <i_i_glide_confnum>  (1) 
925

>  <i_i_glide_lignum>  (1) 
157

>  <i_i_glide_posenum>  (1) 
268

>  <i_i_glide_rotatable_bonds>  (1) 
12

>  <i_lp_mmshare_version>  (1) 
72125

>  <i_m_source_file_index>  (1) 
77

>  <i_f3d_flags>  (1) 
0

>  <num_sample>  (1) 
100

>  <b_lp_Chiralities_Consistent>  (1) 
1

>  <r_epik_Charging_Adjusted_Penalty>  (1) 
2.7385366295040585

>  <r_epik_Ionization_Penalty>  (1) 
1.4403839023663505

>  <r_epik_Ionization_Penalty_Charging>  (1) 
1.4088334024277234

>  <r_epik_Ionization_Penalty_Neutral>  (1) 
0.03155049993862722

>  <r_epik_State_Penalty>  (1) 
1.3297032270763354

>  <r_glide_ring_energy>  (1) 
0.68305203791256774

>  <r_i_docking_score>  (1) 
-4.1109893782735281

>  <r_i_glide_ecoul>  (1) 
-6.0826929454246041

>  <r_i_glide_eff_state_penalty>  (1) 
1.3297032270763354

>  <r_i_glide_einternal>  (1) 
24.975511556495981

>  <r_i_glide_emodel>  (1) 
-37.377265823684041

>  <r_i_glide_emodel_strain>  (1) 
5.0676109321361906

>  <r_i_glide_energy>  (1) 
-37.165908438851815

>  <r_i_glide_erotb>  (1) 
0.66625950385389887

>  <r_i_glide_esite>  (1) 
-0.14313559470830256

>  <r_i_glide_evdw>  (1) 
-31.083215493427208

>  <r_i_glide_gscore>  (1) 
-5.440692605349863

>  <r_i_glide_gscore_strain>  (1) 
0.26690273303404766

>  <r_i_glide_hbond>  (1) 
-0.20000000000000001

>  <r_i_glide_ligand_efficiency>  (1) 
-0.11419414939648689

>  <r_i_glide_ligand_efficiency_ln>  (1) 
-0.89690681624155211

>  <r_i_glide_ligand_efficiency_sa>  (1) 
-0.377060773556604

>  <r_i_glide_lipo>  (1) 
-2.6279028719535447

>  <r_i_glide_metal>  (1) 
-0

>  <r_i_glide_rewards>  (1) 
-0.93625165909091068

>  <r_lp_Energy>  (1) 
78.881341999999989

>  <r_lp_tautomer_probability>  (1) 
0.99995000000000001

>  <s_epik_Chemistry_Notes>  (1) 
This compound contains an acetal/aminal-like group ( X-CH(R)-Y where X, Y are N, S, or O) that may be acid/base labile, releasing an aldehyde.

>  <s_epik_cmdline>  (1) 
J2VwaWtfcHl0aG9uJywgJy1waHQnLCAnMS4wJywgJy1waCcsICc3LjQnLCAnLXRuJywgJzgnLCAnLW1hJywgJzUwMCcsICctaW1hZScsICc8aW5maWxlLm1hZT4nLCAnLW9tYWUnLCAnPG91dGZpbGUubWFlPic=

>  <s_epik_input>  (1) 
Tz1DKFtDSDNdKWMoYzFbT0hdKVtjSF1bY0hdYyhjMTIpYzNjKFtjSF1uMilbQ0gyXVtDSDJdTihbQ0gyXTMpW0NIMl1bQ0gyXVtDSDJdW0NIMl1OKFtDSDJdW09IXSlbQ0BIXShbQ0gzXSlbQ0BASF0oW0NIMl1bTkgyXSlbQ0BIXTRbQ0gyXVtDSF09W0NIXVtDSF09W0NIXTQ=

>  <s_glide_docking_method>  (1) 
confgen

>  <s_i_glide_gridfile>  (1) 
gpcr_drd2_6luq_protein_autoprepared_prepared

>  <s_lp_Force_Field>  (1) 
S-OPLS

>  <s_lp_Variant>  (1) 
DiffSBDD_76_num_sample_100-6

>  <s_m_source_file>  (1) 
generated__ligand_DiffSBDD_2026-05-06_prepared.sdf

>  <GenAI_Model>  (1) 
DiffSBDD

>  <Protein>  (1) 
generic_title2

$$$$
DiffSBDD_55_num_sample_100
     RDKit          3D

  0  0  0  0  0  0  0  0  0  0999 V3000
M  V30 BEGIN CTAB
M  V30 COUNTS 50 53 0 0 1
M  V30 BEGIN ATOM
M  V30 1 O 11.777028 9.369221 -3.290040 0
M  V30 2 C 6.588936 4.569302 -11.121136 0
M  V30 3 C 9.895855 8.615508 -7.287741 0
M  V30 4 C 11.869841 7.961920 -9.602747 0
M  V30 5 C 10.945386 6.586090 -5.654973 0 CFG=2
M  V30 6 C 11.135201 8.032521 -5.210873 0 CFG=1
M  V30 7 S 8.344581 5.255645 -13.100219 0
M  V30 8 C 6.946555 4.219342 -12.569367 0
M  V30 9 C 7.873139 5.072918 -10.491446 0
M  V30 10 C 12.094662 7.600625 -1.891668 0
M  V30 11 N 10.045995 7.336789 -7.943921 0
M  V30 12 C 12.234442 8.334770 -4.159125 0 CFG=2
M  V30 13 C 11.120229 8.980475 -6.409568 0 CFG=2
M  V30 14 C 12.609087 7.176501 -3.219149 0
M  V30 15 C 12.234838 9.095385 -1.987462 0
M  V30 16 C 8.785106 7.226290 -11.204183 0
M  V30 17 C 10.515042 7.280595 -9.337992 0 CFG=1
M  V30 18 C 8.870769 5.728780 -11.429388 0 CFG=2
M  V30 19 C 11.834823 5.994313 -6.691662 0
M  V30 20 O 8.090958 4.965573 -9.286481 0
M  V30 21 O 11.034842 10.287838 -5.891680 0
M  V30 22 C 9.499731 7.906183 -10.285953 0
M  V30 23 C 10.401262 6.249603 -7.045690 0 CFG=1
M  V30 24 H 5.855141 5.374488 -11.086187 0
M  V30 25 H 6.185709 3.716817 -10.576024 0
M  V30 26 H 9.005666 8.578911 -6.657294 0
M  V30 27 H 9.674428 9.369295 -8.033845 0
M  V30 28 H 12.152698 7.852980 -10.650352 0
M  V30 29 H 11.832672 9.031246 -9.391501 0
M  V30 30 H 12.679442 7.537703 -9.019481 0
M  V30 31 H 10.585193 5.922624 -4.872189 0
M  V30 32 H 10.234814 8.247597 -4.691670 0
M  V30 33 H 6.096631 4.364090 -13.236131 0
M  V30 34 H 7.242927 3.171673 -12.641527 0
M  V30 35 H 12.706920 7.189628 -1.091682 0
M  V30 36 H 11.053822 7.306059 -1.749796 0
M  V30 37 H 13.122224 8.741471 -4.636373 0
M  V30 38 H 12.048294 8.910332 -6.976377 0
M  V30 39 H 12.234826 6.192194 -3.491094 0
M  V30 40 H 13.692708 7.101379 -3.140571 0
M  V30 41 H 13.286600 9.358426 -1.936382 0
M  V30 42 H 11.704137 9.649237 -1.216396 0
M  V30 43 H 8.088812 7.764343 -11.831083 0
M  V30 44 H 10.630697 6.229333 -9.583624 0
M  V30 45 H 9.868505 5.337035 -11.245927 0
M  V30 46 H 12.154489 4.969259 -6.535563 0
M  V30 47 H 12.602804 6.640864 -7.091669 0
M  V30 48 H 11.035242 10.901226 -6.609791 0
M  V30 49 H 9.357643 8.969182 -10.199005 0
M  V30 50 H 9.741355 5.392060 -7.160308 0
M  V30 END ATOM
M  V30 BEGIN BOND
M  V30 1 1 6 5
M  V30 2 1 8 2
M  V30 3 1 8 7
M  V30 4 1 9 2
M  V30 5 1 11 3
M  V30 6 1 12 1
M  V30 7 1 12 6
M  V30 8 1 13 3
M  V30 9 1 13 6
M  V30 10 1 14 10
M  V30 11 1 14 12
M  V30 12 1 15 1
M  V30 13 1 15 10
M  V30 14 1 17 4
M  V30 15 1 17 11
M  V30 16 1 18 7
M  V30 17 1 18 9
M  V30 18 1 18 16
M  V30 19 1 19 5
M  V30 20 2 20 9
M  V30 21 1 21 13
M  V30 22 2 22 16
M  V30 23 1 22 17
M  V30 24 1 23 5
M  V30 25 1 23 11
M  V30 26 1 23 19
M  V30 27 1 24 2
M  V30 28 1 25 2
M  V30 29 1 26 3
M  V30 30 1 27 3
M  V30 31 1 28 4
M  V30 32 1 29 4
M  V30 33 1 30 4
M  V30 34 1 5 31 CFG=1
M  V30 35 1 6 32 CFG=1
M  V30 36 1 33 8
M  V30 37 1 34 8
M  V30 38 1 35 10
M  V30 39 1 36 10
M  V30 40 1 12 37 CFG=3
M  V30 41 1 13 38 CFG=3
M  V30 42 1 39 14
M  V30 43 1 40 14
M  V30 44 1 41 15
M  V30 45 1 42 15
M  V30 46 1 43 16
M  V30 47 1 17 44 CFG=3
M  V30 48 1 18 45 CFG=1
M  V30 49 1 46 19
M  V30 50 1 47 19
M  V30 51 1 48 21
M  V30 52 1 49 22
M  V30 53 1 23 50 CFG=1
M  V30 END BOND
M  V30 END CTAB
M  END
>  <i_epik_Tot_Q>  (1) 
0

>  <i_epik_Tot_abs_Q>  (1) 
0

>  <i_i_glide_confnum>  (1) 
119

>  <i_i_glide_lignum>  (1) 
111

>  <i_i_glide_posenum>  (1) 
132

>  <i_i_glide_rotatable_bonds>  (1) 
5

>  <i_lp_mmshare_version>  (1) 
72125

>  <i_m_source_file_index>  (1) 
56

>  <i_f3d_flags>  (1) 
0

>  <num_sample>  (1) 
100

>  <b_lp_Chiralities_Consistent>  (1) 
1

>  <r_epik_Charging_Adjusted_Penalty>  (1) 
1.1351003249830234

>  <r_epik_Ionization_Penalty>  (1) 
1.13510036387319

>  <r_epik_Ionization_Penalty_Charging>  (1) 
0

>  <r_epik_Ionization_Penalty_Neutral>  (1) 
1.13510036387319

>  <r_epik_State_Penalty>  (1) 
1.1351003249830234

>  <r_glide_ring_energy>  (1) 
1.1829721722469726

>  <r_i_docking_score>  (1) 
-4.1043609707123148

>  <r_i_glide_ecoul>  (1) 
0.38774823147949244

>  <r_i_glide_eff_state_penalty>  (1) 
1.1351003249830234

>  <r_i_glide_einternal>  (1) 
12.023907862455284

>  <r_i_glide_emodel>  (1) 
-26.374439421949614

>  <r_i_glide_emodel_strain>  (1) 
1.4565207528738284

>  <r_i_glide_energy>  (1) 
-24.036122032587802

>  <r_i_glide_erotb>  (1) 
0.4978175189556282

>  <r_i_glide_esite>  (1) 
-0.065430845528612822

>  <r_i_glide_evdw>  (1) 
-24.423870264067293

>  <r_i_glide_gscore>  (1) 
-5.2394612956953379

>  <r_i_glide_gscore_strain>  (1) 
0

>  <r_i_glide_hbond>  (1) 
0

>  <r_i_glide_ligand_efficiency>  (1) 
-0.17845047698749195

>  <r_i_glide_ligand_efficiency_ln>  (1) 
-0.99247169900590948

>  <r_i_glide_ligand_efficiency_sa>  (1) 
-0.50748941904348999

>  <r_i_glide_lipo>  (1) 
-2.7102461138566074

>  <r_i_glide_metal>  (1) 
-0

>  <r_i_glide_rewards>  (1) 
-1.798570576784305

>  <r_lp_Energy>  (1) 
16.161977

>  <r_lp_tautomer_probability>  (1) 
0.99995000000000001

>  <s_epik_cmdline>  (1) 
J2VwaWtfcHl0aG9uJywgJy1waHQnLCAnMS4wJywgJy1waCcsICc3LjQnLCAnLXRuJywgJzgnLCAnLW1hJywgJzUwMCcsICctaW1hZScsICc8aW5maWxlLm1hZT4nLCAnLW9tYWUnLCAnPG91dGZpbGUubWFlPic=

>  <s_epik_input>  (1) 
W0NIMl0xW0NIMl1bQ0gyXU9bQ0BASF0xW0NASF0yW0NASF0oW09IXSlbQ0gyXU4oW0NASF0oW0NASF0yMylbQ0gyXTMpW0NASF0oW0NIM10pL1tDSF09W0NIXVxbQ0BASF00U1tDSDJdW0NIMl1DND1P

>  <s_glide_docking_method>  (1) 
confgen

>  <s_i_glide_gridfile>  (1) 
gpcr_drd2_6luq_protein_autoprepared_prepared

>  <s_lp_Force_Field>  (1) 
S-OPLS

>  <s_lp_Variant>  (1) 
DiffSBDD_55_num_sample_100-12

>  <s_m_source_file>  (1) 
generated__ligand_DiffSBDD_2026-05-06_prepared.sdf

>  <GenAI_Model>  (1) 
DiffSBDD

>  <Protein>  (1) 
generic_title2

$$$$
DiffSBDD_5_num_sample_100
     RDKit          3D

  0  0  0  0  0  0  0  0  0  0999 V3000
M  V30 BEGIN CTAB
M  V30 COUNTS 68 72 0 0 1
M  V30 BEGIN ATOM
M  V30 1 N 9.999681 6.779560 -10.943046 0
M  V30 2 C 10.369691 8.158900 -10.664036 0
M  V30 3 C 4.672648 5.848655 -21.938298 0
M  V30 4 C 9.667074 6.899075 -7.660122 0
M  V30 5 C 5.020426 8.364934 -21.904608 0 CFG=2
M  V30 6 C 9.007483 4.506497 -13.392372 0
M  V30 7 C 6.547637 4.458750 -13.921362 0
M  V30 8 C 6.773983 5.677311 -18.007452 0
M  V30 9 C 10.015259 8.789394 -9.320338 0
M  V30 10 O 6.410106 5.256980 -10.915465 0
M  V30 11 C 7.473475 4.579456 -11.550732 0 CFG=2
M  V30 12 C 5.564679 9.634640 -21.212403 0
M  V30 13 C 5.573472 6.998682 -21.427256 0 CFG=2
M  V30 14 N 6.617562 4.985665 -15.278451 0
M  V30 15 C 9.133361 6.035268 -10.053878 0 CFG=1
M  V30 16 C 4.867754 7.493371 -19.012323 0
M  V30 17 O 6.719446 7.729139 -23.392816 0
M  V30 18 C 6.923504 7.008690 -22.183161 0 CFG=2
M  V30 19 C 8.877999 4.736267 -10.910956 0 CFG=2
M  V30 20 C 4.982180 7.291722 -17.625234 0
M  V30 21 C 6.673645 5.896137 -19.393893 0
M  V30 22 C 5.923503 6.373657 -17.116774 0
M  V30 23 C 7.626741 5.021515 -13.012085 0 CFG=1
M  V30 24 C 5.466087 8.391209 -23.363954 0
M  V30 25 C 5.987065 6.116099 -15.636093 0
M  V30 26 C 5.715681 6.801874 -19.904677 0
M  V30 27 C 10.360518 6.168453 -12.039773 0
M  V30 28 F 7.419570 5.789143 -22.391017 0
M  V30 29 C 10.558765 8.061690 -8.091122 0
M  V30 30 O 5.435447 6.867362 -14.836918 0
M  V30 31 O 11.083735 6.655980 -12.901822 0
M  V30 32 C 9.829539 4.771666 -12.146221 0 CFG=2
M  V30 33 C 9.662701 5.720568 -8.640315 0
M  V30 34 H 11.451536 8.239243 -10.782056 0
M  V30 35 H 9.890959 8.726047 -11.462296 0
M  V30 36 H 4.574159 5.833146 -23.022324 0
M  V30 37 H 5.071369 4.876346 -21.647413 0
M  V30 38 H 3.672154 5.920879 -21.516490 0
M  V30 39 H 10.007542 6.543852 -6.687683 0
M  V30 40 H 8.647235 7.255101 -7.503235 0
M  V30 41 H 3.931561 8.390591 -21.841624 0
M  V30 42 H 8.980465 3.425824 -13.539822 0
M  V30 43 H 9.415007 4.965711 -14.294697 0
M  V30 44 H 6.625476 3.371254 -13.973086 0
M  V30 45 H 5.563837 4.661131 -13.491276 0
M  V30 46 H 7.499977 4.970652 -17.631413 0
M  V30 47 H 10.488333 9.767271 -9.363420 0
M  V30 48 H 8.946129 8.969623 -9.229960 0
M  V30 49 H 6.499315 5.191848 -9.973778 0
M  V30 50 H 7.213908 3.522858 -11.547206 0
M  V30 51 H 6.654291 9.651214 -21.192675 0
M  V30 52 H 5.240215 10.523006 -21.755596 0
M  V30 53 H 5.214908 9.767402 -20.191781 0
M  V30 54 H 7.051844 4.415622 -15.988346 0
M  V30 55 H 8.234661 6.569348 -9.965571 0
M  V30 56 H 4.120120 8.171857 -19.390001 0
M  V30 57 H 7.675417 7.552461 -21.609507 0
M  V30 58 H 9.110254 3.856096 -10.314771 0
M  V30 59 H 4.324125 7.820335 -16.949622 0
M  V30 60 H 7.319261 5.355812 -20.066035 0
M  V30 61 H 7.621625 6.112730 -13.055186 0
M  V30 62 H 4.759442 7.836997 -23.973101 0
M  V30 63 H 5.539402 9.393744 -23.783946 0
M  V30 64 H 11.580830 7.730057 -8.269394 0
M  V30 65 H 10.606073 8.777013 -7.269497 0
M  V30 66 H 10.634370 4.065388 -12.044629 0
M  V30 67 H 10.641355 5.272396 -8.688371 0
M  V30 68 H 9.020633 4.955405 -8.204453 0
M  V30 END ATOM
M  V30 BEGIN BOND
M  V30 1 1 2 1
M  V30 2 1 9 2
M  V30 3 1 11 10
M  V30 4 1 12 5
M  V30 5 1 13 3 CFG=3
M  V30 6 1 13 5
M  V30 7 1 14 7
M  V30 8 1 15 1
M  V30 9 1 18 13
M  V30 10 1 18 17
M  V30 11 1 19 11
M  V30 12 1 19 15
M  V30 13 1 20 16
M  V30 14 2 21 8
M  V30 15 1 22 8
M  V30 16 2 22 20
M  V30 17 1 23 6
M  V30 18 1 23 7
M  V30 19 1 23 11
M  V30 20 1 24 5
M  V30 21 1 24 17
M  V30 22 1 25 14
M  V30 23 1 25 22
M  V30 24 1 26 13
M  V30 25 2 26 16
M  V30 26 1 26 21
M  V30 27 1 27 1
M  V30 28 1 28 18
M  V30 29 1 29 4
M  V30 30 1 29 9
M  V30 31 2 30 25
M  V30 32 2 31 27
M  V30 33 1 32 6
M  V30 34 1 32 19
M  V30 35 1 32 27
M  V30 36 1 33 4
M  V30 37 1 33 15
M  V30 38 1 34 2
M  V30 39 1 35 2
M  V30 40 1 36 3
M  V30 41 1 37 3
M  V30 42 1 38 3
M  V30 43 1 39 4
M  V30 44 1 40 4
M  V30 45 1 5 41 CFG=3
M  V30 46 1 42 6
M  V30 47 1 43 6
M  V30 48 1 44 7
M  V30 49 1 45 7
M  V30 50 1 46 8
M  V30 51 1 47 9
M  V30 52 1 48 9
M  V30 53 1 49 10
M  V30 54 1 11 50 CFG=3
M  V30 55 1 51 12
M  V30 56 1 52 12
M  V30 57 1 53 12
M  V30 58 1 54 14
M  V30 59 1 15 55 CFG=1
M  V30 60 1 56 16
M  V30 61 1 18 57 CFG=1
M  V30 62 1 19 58 CFG=1
M  V30 63 1 59 20
M  V30 64 1 60 21
M  V30 65 1 23 61 CFG=1
M  V30 66 1 62 24
M  V30 67 1 63 24
M  V30 68 1 64 29
M  V30 69 1 65 29
M  V30 70 1 32 66 CFG=1
M  V30 71 1 67 33
M  V30 72 1 68 33
M  V30 END BOND
M  V30 END CTAB
M  END
>  <i_epik_Tot_Q>  (1) 
0

>  <i_epik_Tot_abs_Q>  (1) 
0

>  <i_i_glide_confnum>  (1) 
245

>  <i_i_glide_lignum>  (1) 
8

>  <i_i_glide_posenum>  (1) 
278

>  <i_i_glide_rotatable_bonds>  (1) 
6

>  <i_lp_mmshare_version>  (1) 
72125

>  <i_m_source_file_index>  (1) 
6

>  <i_f3d_flags>  (1) 
0

>  <num_sample>  (1) 
100

>  <b_lp_Chiralities_Consistent>  (1) 
1

>  <r_epik_Charging_Adjusted_Penalty>  (1) 
0

>  <r_epik_Ionization_Penalty>  (1) 
1.9291304558021744e-07

>  <r_epik_Ionization_Penalty_Charging>  (1) 
0

>  <r_epik_Ionization_Penalty_Neutral>  (1) 
1.9291304558021744e-07

>  <r_epik_State_Penalty>  (1) 
-0

>  <r_glide_ring_energy>  (1) 
1.2564436429042196

>  <r_i_docking_score>  (1) 
-4.1032013650504346

>  <r_i_glide_ecoul>  (1) 
-0.90973235366792848

>  <r_i_glide_eff_state_penalty>  (1) 
-0

>  <r_i_glide_einternal>  (1) 
5.0255562517029198

>  <r_i_glide_emodel>  (1) 
-26.630207837590213

>  <r_i_glide_emodel_strain>  (1) 
1.6056368917098922

>  <r_i_glide_energy>  (1) 
-24.046951189585315

>  <r_i_glide_erotb>  (1) 
0.47823198043206561

>  <r_i_glide_esite>  (1) 
-0.048179206695741911

>  <r_i_glide_evdw>  (1) 
-23.137218835917388

>  <r_i_glide_gscore>  (1) 
-4.1032013650504346

>  <r_i_glide_gscore_strain>  (1) 
0

>  <r_i_glide_hbond>  (1) 
-0.023166928152085316

>  <r_i_glide_ligand_efficiency>  (1) 
-0.12433943530455863

>  <r_i_glide_ligand_efficiency_ln>  (1) 
-0.91253073834756915

>  <r_i_glide_ligand_efficiency_sa>  (1) 
-0.39882300731166687

>  <r_i_glide_lipo>  (1) 
-1.842403505923341

>  <r_i_glide_metal>  (1) 
-0

>  <r_i_glide_rewards>  (1) 
-1.3743629098652728

>  <r_lp_Energy>  (1) 
32.426643999999996

>  <r_lp_tautomer_probability>  (1) 
1

>  <s_epik_cmdline>  (1) 
J2VwaWtfcHl0aG9uJywgJy1waHQnLCAnMS4wJywgJy1waCcsICc3LjQnLCAnLXRuJywgJzgnLCAnLW1hJywgJzUwMCcsICctaW1hZScsICc8aW5maWxlLm1hZT4nLCAnLW9tYWUnLCAnPG91dGZpbGUubWFlPic=

>  <s_epik_input>  (1) 
W0NIMl0xW0NIMl1bQ0gyXVtDSDJdW0NIMl1bQ0BASF0oTjEyKVtDQEBIXTNbQ0BIXShDMj1PKVtDSDJdW0NASF0oW0NAQEhdM1tPSF0pW0NIMl1bTkhdQyg9TyljNFtjSF1bY0hdYyhbY0hdW2NIXTQpW0NAQF01KFtDSDNdKVtDQEBIXShbQ0gzXSlbQ0gyXU9bQ0BASF01Rg==

>  <s_glide_docking_method>  (1) 
confgen

>  <s_i_glide_gridfile>  (1) 
gpcr_drd2_6luq_protein_autoprepared_prepared

>  <s_lp_Force_Field>  (1) 
S-OPLS

>  <s_lp_Variant>  (1) 
DiffSBDD_5_num_sample_100-1

>  <s_m_source_file>  (1) 
generated__ligand_DiffSBDD_2026-05-06_prepared.sdf

>  <GenAI_Model>  (1) 
DiffSBDD

>  <Protein>  (1) 
generic_title2

$$$$
DiffSBDD_69_num_sample_100
     RDKit          3D

  0  0  0  0  0  0  0  0  0  0999 V3000
M  V30 BEGIN CTAB
M  V30 COUNTS 56 58 0 0 1
M  V30 BEGIN ATOM
M  V30 1 C 10.293677 0.652737 -20.224267 0
M  V30 2 C 5.784641 6.820422 -17.559033 0
M  V30 3 C 13.258656 1.315149 -18.952139 0
M  V30 4 C 7.320045 4.169274 -12.291785 0 CFG=2
M  V30 5 N 8.234842 0.331628 -16.368617 0
M  V30 6 O 9.824064 -0.002462 -17.885648 0
M  V30 7 O 7.592353 6.515115 -11.892076 0
M  V30 8 N 7.605673 1.776717 -14.443335 0
M  V30 9 C 6.977003 0.470416 -14.242841 0 CFG=1
M  V30 10 C 7.377522 5.092322 -17.998959 0
M  V30 11 C 11.867001 1.342264 -18.278301 0
M  V30 12 C 6.530806 6.128976 -18.420495 0
M  V30 13 C 8.103458 5.399913 -11.845835 0
M  V30 14 C 5.419651 7.585503 -19.519655 0
M  V30 15 O 5.034774 7.769275 -18.124716 0
M  V30 16 C 10.849466 0.314563 -18.829220 0 CFG=2
M  V30 17 O 6.394510 6.512719 -19.694015 0
M  V30 18 C 7.434847 4.776975 -16.621835 0
M  V30 19 F 9.360432 5.240243 -11.394957 0
M  V30 20 C 6.636021 5.516269 -15.697842 0
M  V30 21 C 5.804085 6.553229 -16.181390 0
M  V30 22 C 13.993636 -0.043370 -18.902490 0 CFG=1
M  V30 23 O 8.811496 2.040744 -17.849351 0
M  V30 24 O 15.305068 0.111414 -19.403186 0
M  V30 25 O 5.611758 0.556248 -13.878423 0
M  V30 26 C 7.293608 4.060748 -13.845949 0 CFG=1
M  V30 27 C 8.941057 0.899302 -17.411566 0
M  V30 28 O 6.634829 2.864966 -14.291619 0
M  V30 29 O 6.085682 4.213880 -11.841323 0 CHG=-1
M  V30 30 C 14.099880 -0.630696 -17.491667 0
M  V30 31 C 7.230101 1.007324 -15.623306 0 CFG=2
M  V30 32 O 6.659455 5.240490 -14.346851 0
M  V30 33 H 11.096075 0.717177 -20.958476 0
M  V30 34 H 9.762268 1.604417 -20.235964 0
M  V30 35 H 9.603909 -0.119981 -20.563667 0
M  V30 36 H 13.164918 1.633197 -19.990923 0
M  V30 37 H 13.879965 2.070497 -18.468739 0
M  V30 38 H 7.975161 3.358191 -11.981590 0
M  V30 39 H 8.461555 -0.623410 -16.132148 0
M  V30 40 H 7.543851 -0.369675 -13.851501 0
M  V30 41 H 7.973413 4.543756 -18.713204 0
M  V30 42 H 12.000002 1.176899 -17.209182 0
M  V30 43 H 11.451283 2.347164 -18.359545 0
M  V30 44 H 4.528938 7.352529 -20.103453 0
M  V30 45 H 5.842679 8.518444 -19.893580 0
M  V30 46 H 11.373291 -0.630681 -18.922454 0
M  V30 47 H 8.077895 3.982163 -16.281358 0
M  V30 48 H 5.191498 7.126805 -15.501810 0
M  V30 49 H 13.486045 -0.756047 -19.552239 0
M  V30 50 H 15.721800 -0.740041 -19.413440 0
M  V30 51 H 5.247696 -0.320096 -13.891664 0
M  V30 52 H 8.333812 4.075237 -14.178523 0
M  V30 53 H 13.108492 -0.829186 -17.091667 0
M  V30 54 H 14.610818 0.047688 -16.807122 0
M  V30 55 H 14.634839 -1.579676 -17.491979 0
M  V30 56 H 6.374443 1.368192 -16.193624 0
M  V30 END ATOM
M  V30 BEGIN BOND
M  V30 1 1 9 8
M  V30 2 1 11 3
M  V30 3 2 12 2
M  V30 4 1 12 10
M  V30 5 1 13 4
M  V30 6 2 13 7
M  V30 7 1 15 2
M  V30 8 1 15 14
M  V30 9 1 16 1
M  V30 10 1 16 6
M  V30 11 1 16 11
M  V30 12 1 17 12
M  V30 13 1 17 14
M  V30 14 2 18 10
M  V30 15 1 19 13
M  V30 16 1 20 18
M  V30 17 1 21 2
M  V30 18 2 21 20
M  V30 19 1 22 3
M  V30 20 1 24 22
M  V30 21 1 25 9
M  V30 22 1 26 4
M  V30 23 1 27 5
M  V30 24 1 27 6
M  V30 25 2 27 23
M  V30 26 1 28 8
M  V30 27 1 28 26
M  V30 28 1 29 4
M  V30 29 1 30 22
M  V30 30 1 31 5
M  V30 31 1 31 8
M  V30 32 1 31 9
M  V30 33 1 32 20
M  V30 34 1 32 26
M  V30 35 1 33 1
M  V30 36 1 34 1
M  V30 37 1 35 1
M  V30 38 1 36 3
M  V30 39 1 37 3
M  V30 40 1 4 38 CFG=1
M  V30 41 1 39 5
M  V30 42 1 9 40 CFG=3
M  V30 43 1 41 10
M  V30 44 1 42 11
M  V30 45 1 43 11
M  V30 46 1 44 14
M  V30 47 1 45 14
M  V30 48 1 16 46 CFG=3
M  V30 49 1 47 18
M  V30 50 1 48 21
M  V30 51 1 22 49 CFG=3
M  V30 52 1 50 24
M  V30 53 1 51 25
M  V30 54 1 26 52 CFG=3
M  V30 55 1 53 30
M  V30 56 1 54 30
M  V30 57 1 55 30
M  V30 58 1 31 56 CFG=3
M  V30 END BOND
M  V30 END CTAB
M  END
>  <i_epik_Tot_Q>  (1) 
-1

>  <i_epik_Tot_abs_Q>  (1) 
1

>  <i_i_glide_confnum>  (1) 
96

>  <i_i_glide_lignum>  (1) 
139

>  <i_i_glide_posenum>  (1) 
20

>  <i_i_glide_rotatable_bonds>  (1) 
15

>  <i_lp_mmshare_version>  (1) 
72125

>  <i_m_source_file_index>  (1) 
70

>  <i_f3d_flags>  (1) 
0

>  <num_sample>  (1) 
100

>  <b_lp_Chiralities_Consistent>  (1) 
1

>  <r_epik_Charging_Adjusted_Penalty>  (1) 
0.75931899185534724

>  <r_epik_Ionization_Penalty>  (1) 
0.3796836148010711

>  <r_epik_Ionization_Penalty_Charging>  (1) 
0.37965949592767362

>  <r_epik_Ionization_Penalty_Neutral>  (1) 
2.4118873397482059e-05

>  <r_epik_State_Penalty>  (1) 
0.37965949592767362

>  <r_glide_ring_energy>  (1) 
0

>  <r_i_docking_score>  (1) 
-4.1021009248111717

>  <r_i_glide_ecoul>  (1) 
-2.1158310368682285

>  <r_i_glide_eff_state_penalty>  (1) 
0.37965949592767362

>  <r_i_glide_einternal>  (1) 
7.9506673226999203

>  <r_i_glide_emodel>  (1) 
-44.194692718868467

>  <r_i_glide_emodel_strain>  (1) 
1.3803822991046388

>  <r_i_glide_energy>  (1) 
-37.76334532428843

>  <r_i_glide_erotb>  (1) 
1.0486485046790583

>  <r_i_glide_esite>  (1) 
-0.015153374538353654

>  <r_i_glide_evdw>  (1) 
-35.647514287420201

>  <r_i_glide_gscore>  (1) 
-4.4817604207388451

>  <r_i_glide_gscore_strain>  (1) 
0

>  <r_i_glide_hbond>  (1) 
-0.057424620589574586

>  <r_i_glide_ligand_efficiency>  (1) 
-0.12819065390034912

>  <r_i_glide_ligand_efficiency_ln>  (1) 
-0.91857221611323236

>  <r_i_glide_ligand_efficiency_sa>  (1) 
-0.4069799577078112

>  <r_i_glide_lipo>  (1) 
-1.7090370539124549

>  <r_i_glide_metal>  (1) 
-0

>  <r_i_glide_rewards>  (1) 
-1.6490435064762754

>  <r_lp_Energy>  (1) 
45.431683

>  <r_lp_tautomer_probability>  (1) 
1

>  <s_epik_Chemistry_Notes>  (1) 
This compound has an ester and may undergo hydrolysis at high or low pH. This compound contains an acetal/aminal-like group ( X-CH(R)-Y where X, Y are N, S, or O) that may be acid/base labile, releasing an aldehyde. This compound has a N-S or N-O group and may undergo hydrolysis at high or low pH.

>  <s_epik_cmdline>  (1) 
J2VwaWtfcHl0aG9uJywgJy1waHQnLCAnMS4wJywgJy1waCcsICc3LjQnLCAnLXRuJywgJzgnLCAnLW1hJywgJzUwMCcsICctaW1hZScsICc8aW5maWxlLm1hZT4nLCAnLW9tYWUnLCAnPG91dGZpbGUubWFlPic=

>  <s_epik_input>  (1) 
W09IXVtDQEBIXShbQ0gzXSlbQ0gyXVtDSDJdW0NASF0oW0NIM10pT0MoPU8pW05IXVtDQEhdMVtDSF0oW09IXSlbTkBAXTFPW0NASF0oW0NAQEhdKEMoPU8pRilbT0hdKU9jKFtjSF0yKVtjSF1bY0hdYyhjMjMpT1tDSDJdTzM=

>  <s_glide_docking_method>  (1) 
confgen

>  <s_i_glide_gridfile>  (1) 
gpcr_drd2_6luq_protein_autoprepared_prepared

>  <s_lp_Force_Field>  (1) 
S-OPLS

>  <s_lp_Variant>  (1) 
DiffSBDD_69_num_sample_100-1

>  <s_m_source_file>  (1) 
generated__ligand_DiffSBDD_2026-05-06_prepared.sdf

>  <GenAI_Model>  (1) 
DiffSBDD

>  <Protein>  (1) 
generic_title2

$$$$
DiffSBDD_15_num_sample_100
     RDKit          3D

  0  0  0  0  0  0  0  0  0  0999 V3000
M  V30 BEGIN CTAB
M  V30 COUNTS 48 51 0 0 1
M  V30 BEGIN ATOM
M  V30 1 C 7.938610 4.513655 -15.949893 0
M  V30 2 C 6.979548 7.088057 -12.273651 0
M  V30 3 C 8.336129 4.529481 -13.515342 0
M  V30 4 C 7.204335 1.778947 -16.616622 0
M  V30 5 C 6.524741 6.099206 -17.114979 0
M  V30 6 C 7.352698 4.971277 -17.147823 0
M  V30 7 C 8.277235 6.470724 -11.925043 0
M  V30 8 C 7.607660 4.304275 -18.460258 0
M  V30 9 C 6.122998 0.724746 -16.892315 0
M  V30 10 C 8.557665 5.073338 -12.314726 0
M  V30 11 C 8.236093 -1.692516 -19.016087 0
M  V30 12 C 6.238976 6.741966 -15.905154 0
M  V30 13 C 6.713890 -0.603896 -17.379182 0 CFG=2
M  V30 14 C 7.690305 5.151318 -14.709944 0
M  V30 15 C 6.375955 7.039555 -13.464073 0
M  V30 16 F 4.871354 -1.830573 -16.692603 0
M  V30 17 C 7.657100 -0.349984 -18.566831 0 CFG=1
M  V30 18 N 8.087488 1.938928 -17.778410 0
M  V30 19 C 7.103707 -2.687246 -19.321281 0
M  V30 20 C 7.968633 3.004517 -18.691144 0
M  V30 21 F 4.841203 -1.123609 -18.720192 0
M  V30 22 C 6.801108 6.300581 -14.686125 0
M  V30 23 O 6.262054 -2.837185 -18.181632 0
M  V30 24 C 5.627501 -1.629557 -17.766613 0
M  V30 25 C 8.727516 0.694527 -18.192954 0
M  V30 26 H 8.601888 3.665897 -15.974453 0
M  V30 27 H 6.524411 7.679801 -11.491668 0
M  V30 28 H 8.665106 3.511091 -13.657617 0
M  V30 29 H 7.792671 1.505396 -15.739808 0
M  V30 30 H 6.634776 2.660485 -16.376650 0
M  V30 31 H 6.080061 6.463731 -18.029214 0
M  V30 32 H 9.084882 7.111739 -12.278995 0
M  V30 33 H 8.335406 6.499284 -10.836184 0
M  V30 34 H 7.504482 4.946769 -19.322625 0
M  V30 35 H 5.527854 0.565586 -15.991891 0
M  V30 36 H 5.436112 1.118313 -17.643091 0
M  V30 37 H 9.044353 4.470775 -11.560906 0
M  V30 38 H 8.869306 -2.096991 -18.225459 0
M  V30 39 H 8.866469 -1.559567 -19.896491 0
M  V30 40 H 5.574159 7.593790 -15.905787 0
M  V30 41 H 7.297908 -1.029487 -16.560550 0
M  V30 42 H 5.462291 7.605959 -13.572000 0
M  V30 43 H 7.074574 0.055251 -19.396425 0
M  V30 44 H 7.519422 -3.661926 -19.578102 0
M  V30 45 H 6.518940 -2.356422 -20.180544 0
M  V30 46 H 8.185613 2.693090 -19.702516 0
M  V30 47 H 9.392249 0.877183 -19.037079 0
M  V30 48 H 9.352871 0.326712 -17.378387 0
M  V30 END ATOM
M  V30 BEGIN BOND
M  V30 1 2 6 1
M  V30 2 1 6 5
M  V30 3 1 7 2
M  V30 4 1 8 6
M  V30 5 1 9 4
M  V30 6 2 10 3
M  V30 7 1 10 7
M  V30 8 2 12 5
M  V30 9 1 13 9
M  V30 10 1 14 1
M  V30 11 1 14 3
M  V30 12 2 15 2
M  V30 13 1 17 11
M  V30 14 1 17 13
M  V30 15 1 18 4
M  V30 16 1 19 11
M  V30 17 2 20 8
M  V30 18 1 20 18
M  V30 19 1 22 12
M  V30 20 2 22 14
M  V30 21 1 22 15
M  V30 22 1 23 19
M  V30 23 1 24 13
M  V30 24 1 24 16
M  V30 25 1 24 21
M  V30 26 1 24 23
M  V30 27 1 25 17
M  V30 28 1 25 18
M  V30 29 1 26 1
M  V30 30 1 27 2
M  V30 31 1 28 3
M  V30 32 1 29 4
M  V30 33 1 30 4
M  V30 34 1 31 5
M  V30 35 1 32 7
M  V30 36 1 33 7
M  V30 37 1 34 8
M  V30 38 1 35 9
M  V30 39 1 36 9
M  V30 40 1 37 10
M  V30 41 1 38 11
M  V30 42 1 39 11
M  V30 43 1 40 12
M  V30 44 1 13 41 CFG=1
M  V30 45 1 42 15
M  V30 46 1 17 43 CFG=3
M  V30 47 1 44 19
M  V30 48 1 45 19
M  V30 49 1 46 20
M  V30 50 1 47 25
M  V30 51 1 48 25
M  V30 END BOND
M  V30 END CTAB
M  END
>  <i_epik_Tot_Q>  (1) 
0

>  <i_epik_Tot_abs_Q>  (1) 
0

>  <i_i_glide_confnum>  (1) 
3

>  <i_i_glide_lignum>  (1) 
25

>  <i_i_glide_posenum>  (1) 
199

>  <i_i_glide_rotatable_bonds>  (1) 
2

>  <i_lp_mmshare_version>  (1) 
72125

>  <i_m_source_file_index>  (1) 
16

>  <i_f3d_flags>  (1) 
0

>  <num_sample>  (1) 
100

>  <b_lp_Chiralities_Consistent>  (1) 
1

>  <r_epik_Charging_Adjusted_Penalty>  (1) 
0.41067983895260396

>  <r_epik_Ionization_Penalty>  (1) 
0.00043588865487499098

>  <r_epik_Ionization_Penalty_Charging>  (1) 
0

>  <r_epik_Ionization_Penalty_Neutral>  (1) 
0.00043588865487499098

>  <r_epik_State_Penalty>  (1) 
0.41067983895260396

>  <r_glide_ring_energy>  (1) 
0

>  <r_i_docking_score>  (1) 
-4.0961845498341685

>  <r_i_glide_ecoul>  (1) 
-0.29013774707433149

>  <r_i_glide_eff_state_penalty>  (1) 
0.41067983895260396

>  <r_i_glide_einternal>  (1) 
2.3997439710551607

>  <r_i_glide_emodel>  (1) 
-29.333539775495538

>  <r_i_glide_emodel_strain>  (1) 
0

>  <r_i_glide_energy>  (1) 
-24.019172894036338

>  <r_i_glide_erotb>  (1) 
0.32177656458331499

>  <r_i_glide_esite>  (1) 
-0.0094103032775011194

>  <r_i_glide_evdw>  (1) 
-23.729035146962005

>  <r_i_glide_gscore>  (1) 
-4.5068643887867728

>  <r_i_glide_gscore_strain>  (1) 
0

>  <r_i_glide_hbond>  (1) 
0

>  <r_i_glide_ligand_efficiency>  (1) 
-0.16384738199336674

>  <r_i_glide_ligand_efficiency_ln>  (1) 
-0.97091849105611794

>  <r_i_glide_ligand_efficiency_sa>  (1) 
-0.47909265130834372

>  <r_i_glide_lipo>  (1) 
-1.6012532870804703

>  <r_i_glide_metal>  (1) 
-0

>  <r_i_glide_rewards>  (1) 
-1.9880049436028657

>  <r_lp_Energy>  (1) 
28.753394999999998

>  <r_lp_tautomer_probability>  (1) 
0.5

>  <s_epik_cmdline>  (1) 
J2VwaWtfcHl0aG9uJywgJy1waHQnLCAnMS4wJywgJy1waCcsICc3LjQnLCAnLXRuJywgJzgnLCAnLW1hJywgJzUwMCcsICctaW1hZScsICc8aW5maWxlLm1hZT4nLCAnLW9tYWUnLCAnPG91dGZpbGUubWFlPic=

>  <s_epik_input>  (1) 
W0NIXTE9W0NIXVtDSDJdW0NIXT1bQ0hdYyhjMTIpW2NIXVtjSF1jKFtjSF0yKS9bQ0hdPVtDSF1cTihbQ0gyXVtDSDJdMylbQ0gyXVtDQEhdKFtDQEBIXTM0KVtDSDJdW0NIMl1PQzQoRilG

>  <s_glide_docking_method>  (1) 
confgen

>  <s_i_glide_gridfile>  (1) 
gpcr_drd2_6luq_protein_autoprepared_prepared

>  <s_lp_Force_Field>  (1) 
S-OPLS

>  <s_lp_Variant>  (1) 
DiffSBDD_15_num_sample_100-2

>  <s_m_source_file>  (1) 
generated__ligand_DiffSBDD_2026-05-06_prepared.sdf

>  <GenAI_Model>  (1) 
DiffSBDD

>  <Protein>  (1) 
generic_title2

$$$$
DiffSBDD_26_num_sample_100
     RDKit          3D

  0  0  0  0  0  0  0  0  0  0999 V3000
M  V30 BEGIN CTAB
M  V30 COUNTS 72 77 0 0 1
M  V30 BEGIN ATOM
M  V30 1 C 9.434798 6.832367 -7.385526 0
M  V30 2 C 7.012799 -4.913261 -18.137090 0
M  V30 3 C 6.838404 1.191466 -14.066375 0
M  V30 4 C 6.244462 -2.161648 -19.190685 0
M  V30 5 F 6.652811 1.459715 -19.681529 0
M  V30 6 C 7.962158 4.315835 -11.500948 0 CFG=1
M  V30 7 C 7.272934 3.517075 -14.600468 0
M  V30 8 N 6.615306 -7.133672 -18.441878 0
M  V30 9 C 7.355561 7.468820 -12.662238 0
M  V30 10 C 8.731538 6.948138 -12.239329 0 CFG=1
M  V30 11 C 9.383925 7.782422 -11.098194 0
M  V30 12 C 7.089639 -2.375504 -18.075680 0
M  V30 13 C 6.733140 -6.173597 -17.536347 0
M  V30 14 C 7.631993 0.010102 -18.043707 0
M  V30 15 N 7.388411 -4.457067 -20.597752 0
M  V30 16 C 7.082333 -5.215161 -19.477618 0
M  V30 17 O 6.825530 -6.528834 -19.686681 0
M  V30 18 C 6.315751 0.117834 -13.132940 0
M  V30 19 C 9.558249 5.641197 -9.615971 0 CFG=2
M  V30 20 C 6.568327 -6.500788 -16.081392 0
M  V30 21 N 7.231298 -3.650345 -17.491680 0
M  V30 22 C 8.350909 5.338996 -10.488880 0 CFG=1
M  V30 23 C 9.164469 5.761726 -8.151521 0
M  V30 24 C 6.504478 4.184943 -11.915011 0
M  V30 25 C 6.100725 -0.867035 -19.730098 0
M  V30 26 C 7.799729 3.079648 -15.826482 0
M  V30 27 C 10.160522 8.060826 -7.884611 0
M  V30 28 C 8.826493 5.460025 -11.946628 0 CFG=1
M  V30 29 C 8.387148 1.180071 -17.419274 0
M  V30 30 C 6.794724 0.217740 -19.159819 0
M  V30 31 C 7.772479 -1.284127 -17.503334 0
M  V30 32 C 11.031622 7.731923 -9.101914 0
M  V30 33 O 6.234897 2.908697 -12.478563 0
M  V30 34 C 6.777000 2.550972 -13.696452 0
M  V30 35 C 10.282400 6.920902 -10.175059 0 CFG=2
M  V30 36 C 7.815574 1.696740 -16.103142 0
M  V30 37 N 7.351358 0.759316 -15.241310 0
M  V30 38 H 9.113303 6.844695 -6.354248 0
M  V30 39 H 7.403127 -4.839534 -21.531711 0
M  V30 40 H 5.690093 -2.979881 -19.618816 0
M  V30 41 H 8.492893 3.369332 -11.461342 0
M  V30 42 H 7.247133 4.569018 -14.363866 0
M  V30 43 H 6.606230 7.342518 -11.881255 0
M  V30 44 H 6.999607 6.975121 -13.566207 0
M  V30 45 H 7.435466 8.533899 -12.871427 0
M  V30 46 H 9.382653 7.072957 -13.091662 0
M  V30 47 H 9.981365 8.569282 -11.546588 0
M  V30 48 H 8.634865 8.301779 -10.510687 0
M  V30 49 H 7.609533 -3.473498 -20.544342 0
M  V30 50 H 5.225791 0.131700 -13.110957 0
M  V30 51 H 6.681750 0.279881 -12.118958 0
M  V30 52 H 6.634875 -0.874648 -13.452560 0
M  V30 53 H 10.230749 4.787655 -9.653587 0
M  V30 54 H 6.570748 -5.596253 -15.473329 0
M  V30 55 H 7.374165 -7.145132 -15.728776 0
M  V30 56 H 7.475800 -3.649218 -16.499514 0
M  V30 57 H 7.482415 5.910481 -10.186573 0
M  V30 58 H 8.633653 4.924256 -7.725704 0
M  V30 59 H 5.892791 4.260096 -11.015269 0
M  V30 60 H 6.180932 5.000916 -12.557622 0
M  V30 61 H 5.451158 -0.704973 -20.578477 0
M  V30 62 H 8.184944 3.789768 -16.542737 0
M  V30 63 H 10.774957 8.467549 -7.082082 0
M  V30 64 H 9.413020 8.813926 -8.135568 0
M  V30 65 H 9.820221 5.088589 -12.198802 0
M  V30 66 H 9.414303 0.863543 -17.235427 0
M  V30 67 H 8.454454 2.001118 -18.133847 0
M  V30 68 H 8.408953 -1.440014 -16.644207 0
M  V30 69 H 11.449777 8.644581 -9.527843 0
M  V30 70 H 11.877164 7.139783 -8.757451 0
M  V30 71 H 11.036204 6.569301 -10.872289 0
M  V30 72 H 5.621653 -7.010118 -15.899373 0
M  V30 END ATOM
M  V30 BEGIN BOND
M  V30 1 1 10 9
M  V30 2 1 11 10
M  V30 3 1 12 4
M  V30 4 1 13 2
M  V30 5 2 13 8
M  V30 6 2 16 2
M  V30 7 1 16 15
M  V30 8 1 17 8
M  V30 9 1 17 16
M  V30 10 1 18 3
M  V30 11 1 20 13
M  V30 12 1 21 2
M  V30 13 1 21 12
M  V30 14 1 22 6
M  V30 15 1 22 19
M  V30 16 2 23 1
M  V30 17 1 23 19
M  V30 18 1 24 6
M  V30 19 2 25 4
M  V30 20 2 26 7
M  V30 21 1 27 1
M  V30 22 1 28 6
M  V30 23 1 28 10
M  V30 24 1 28 22
M  V30 25 1 29 14
M  V30 26 1 30 5
M  V30 27 2 30 14
M  V30 28 1 30 25
M  V30 29 2 31 12
M  V30 30 1 31 14
M  V30 31 1 32 27
M  V30 32 1 33 24
M  V30 33 2 34 3
M  V30 34 1 34 7
M  V30 35 1 34 33
M  V30 36 1 35 11
M  V30 37 1 35 19
M  V30 38 1 35 32
M  V30 39 1 36 26
M  V30 40 1 36 29
M  V30 41 1 37 3
M  V30 42 2 37 36
M  V30 43 1 38 1
M  V30 44 1 39 15
M  V30 45 1 40 4
M  V30 46 1 6 41 CFG=1
M  V30 47 1 42 7
M  V30 48 1 43 9
M  V30 49 1 44 9
M  V30 50 1 45 9
M  V30 51 1 10 46 CFG=3
M  V30 52 1 47 11
M  V30 53 1 48 11
M  V30 54 1 49 15
M  V30 55 1 50 18
M  V30 56 1 51 18
M  V30 57 1 52 18
M  V30 58 1 19 53 CFG=1
M  V30 59 1 54 20
M  V30 60 1 55 20
M  V30 61 1 56 21
M  V30 62 1 22 57 CFG=1
M  V30 63 1 58 23
M  V30 64 1 59 24
M  V30 65 1 60 24
M  V30 66 1 61 25
M  V30 67 1 62 26
M  V30 68 1 63 27
M  V30 69 1 64 27
M  V30 70 1 28 65 CFG=1
M  V30 71 1 66 29
M  V30 72 1 67 29
M  V30 73 1 68 31
M  V30 74 1 69 32
M  V30 75 1 70 32
M  V30 76 1 35 71 CFG=3
M  V30 77 1 72 20
M  V30 END BOND
M  V30 END CTAB
M  END
>  <i_epik_Tot_Q>  (1) 
0

>  <i_epik_Tot_abs_Q>  (1) 
0

>  <i_i_glide_confnum>  (1) 
14

>  <i_i_glide_lignum>  (1) 
42

>  <i_i_glide_posenum>  (1) 
312

>  <i_i_glide_rotatable_bonds>  (1) 
7

>  <i_lp_mmshare_version>  (1) 
72125

>  <i_m_source_file_index>  (1) 
27

>  <i_f3d_flags>  (1) 
0

>  <num_sample>  (1) 
100

>  <b_lp_Chiralities_Consistent>  (1) 
1

>  <r_epik_Charging_Adjusted_Penalty>  (1) 
0

>  <r_epik_Ionization_Penalty>  (1) 
0.044548018534552827

>  <r_epik_Ionization_Penalty_Charging>  (1) 
0

>  <r_epik_Ionization_Penalty_Neutral>  (1) 
0.044548018534552827

>  <r_epik_State_Penalty>  (1) 
-0

>  <r_glide_ring_energy>  (1) 
0

>  <r_i_docking_score>  (1) 
-4.0919674617911435

>  <r_i_glide_ecoul>  (1) 
-4.8300381259314733

>  <r_i_glide_eff_state_penalty>  (1) 
-0

>  <r_i_glide_einternal>  (1) 
4.4834802514344752

>  <r_i_glide_emodel>  (1) 
-45.048454242821265

>  <r_i_glide_emodel_strain>  (1) 
0

>  <r_i_glide_energy>  (1) 
-38.754766153647914

>  <r_i_glide_erotb>  (1) 
0.5661782271396133

>  <r_i_glide_esite>  (1) 
-0.066668313620755218

>  <r_i_glide_evdw>  (1) 
-33.924728027716441

>  <r_i_glide_gscore>  (1) 
-4.0919674617911435

>  <r_i_glide_gscore_strain>  (1) 
0

>  <r_i_glide_hbond>  (1) 
-0.32000000000000001

>  <r_i_glide_ligand_efficiency>  (1) 
-0.11059371518354441

>  <r_i_glide_ligand_efficiency_ln>  (1) 
-0.88745181313464805

>  <r_i_glide_ligand_efficiency_sa>  (1) 
-0.36852279438931562

>  <r_i_glide_lipo>  (1) 
-1.0778192634192434

>  <r_i_glide_metal>  (1) 
-0

>  <r_i_glide_rewards>  (1) 
-0.77291599161521518

>  <r_lp_Energy>  (1) 
68.245464999999996

>  <r_lp_tautomer_probability>  (1) 
1

>  <s_epik_cmdline>  (1) 
J2VwaWtfcHl0aG9uJywgJy1waHQnLCAnMS4wJywgJy1waCcsICc3LjQnLCAnLXRuJywgJzgnLCAnLW1hJywgJzUwMCcsICctaW1hZScsICc8aW5maWxlLm1hZT4nLCAnLW9tYWUnLCAnPG91dGZpbGUubWFlPic=

>  <s_epik_input>  (1) 
W0NIXTE9W0NIXVtDSDJdW0NIMl1bQ0BASF0yW0NIMl1bQ0BIXShbQ0gzXSlbQ0hdKFtDQEBIXTNbQ0BIXTEyKVtDQEBIXTNbQ0gyXU9jKGM0W0NIM10pW2NIXVtjSF1jKG40KVtDSDJdYyhbY0hdNSljKEYpW2NIXVtjSF1jNVtOSF1bQ0BIXTZDKD1bQ0gyXSlbTkhdT0MvNj1OXFtIXQ==

>  <s_glide_docking_method>  (1) 
confgen

>  <s_i_glide_gridfile>  (1) 
gpcr_drd2_6luq_protein_autoprepared_prepared

>  <s_lp_Force_Field>  (1) 
S-OPLS

>  <s_lp_Variant>  (1) 
DiffSBDD_26_num_sample_100-2

>  <s_m_source_file>  (1) 
generated__ligand_DiffSBDD_2026-05-06_prepared.sdf

>  <GenAI_Model>  (1) 
DiffSBDD

>  <Protein>  (1) 
generic_title2

$$$$
DiffSBDD_28_num_sample_100
     RDKit          3D

  0  0  0  0  0  0  0  0  0  0999 V3000
M  V30 BEGIN CTAB
M  V30 COUNTS 42 43 0 0 1
M  V30 BEGIN ATOM
M  V30 1 C 11.990738 9.093871 -3.687303 0
M  V30 2 C 6.108223 4.686934 -11.750676 0
M  V30 3 C 11.873791 9.003019 -5.218534 0
M  V30 4 N 10.112805 6.475630 -7.599587 0
M  V30 5 C 11.472122 6.630289 -3.444292 0
M  V30 6 C 9.866309 6.382005 -8.869995 0
M  V30 7 C 11.034939 6.663796 -4.903579 0
M  V30 8 O 10.108045 7.237666 -11.091302 0
M  V30 9 C 7.840376 5.511041 -10.239580 0
M  V30 10 C 8.472659 4.728895 -12.491880 0
M  V30 11 C 9.129000 5.171737 -9.447527 0
M  V30 12 C 5.690593 3.716548 -12.867894 0
M  V30 13 C 11.175628 8.560658 -8.096107 0
M  V30 14 N 10.946923 8.582302 -9.419454 0 CHG=-1
M  V30 15 N 7.536257 4.569052 -11.345978 0 CFG=2 CHG=1
M  V30 16 C 12.429590 7.768355 -3.070998 0
M  V30 17 C 10.325646 7.466289 -9.900947 0
M  V30 18 C 10.838380 7.607451 -7.152947 0
M  V30 19 C 11.225477 7.712861 -5.735951 0
M  V30 20 H 12.707238 9.866671 -3.416451 0
M  V30 21 H 11.034583 9.401026 -3.263465 0
M  V30 22 H 5.481184 4.499148 -10.876870 0
M  V30 23 H 5.900673 5.711895 -12.064059 0
M  V30 24 H 12.858083 9.117763 -5.668402 0
M  V30 25 H 11.284315 9.854395 -5.561544 0
M  V30 26 H 10.621720 6.569151 -2.774149 0
M  V30 27 H 12.007838 5.697622 -3.286832 0
M  V30 28 H 10.580605 5.769087 -5.278985 0
M  V30 29 H 7.020325 5.513561 -9.521395 0
M  V30 30 H 7.848014 6.501894 -10.691660 0
M  V30 31 H 8.306022 5.678378 -13.003725 0
M  V30 32 H 9.517102 4.706438 -12.184837 0
M  V30 33 H 8.357115 3.920236 -13.213352 0
M  V30 34 H 9.834722 4.612631 -10.054378 0
M  V30 35 H 8.867443 4.505449 -8.625752 0
M  V30 36 H 4.614910 3.770882 -13.038639 0
M  V30 37 H 6.167255 3.955448 -13.818501 0
M  V30 38 H 5.936496 2.684721 -12.615529 0
M  V30 39 H 11.761751 9.426391 -7.725635 0
M  V30 40 H 13.430621 7.525558 -3.430753 0
M  V30 41 H 12.506525 7.857672 -1.987013 0
M  V30 42 H 7.666257 3.636909 -10.980509 0
M  V30 END ATOM
M  V30 BEGIN BOND
M  V30 1 1 3 1
M  V30 2 2 6 4
M  V30 3 1 7 5
M  V30 4 1 11 6
M  V30 5 1 11 9
M  V30 6 1 12 2
M  V30 7 1 14 13
M  V30 8 1 15 2
M  V30 9 1 15 9
M  V30 10 1 15 10
M  V30 11 1 16 1
M  V30 12 1 16 5
M  V30 13 1 17 6
M  V30 14 2 17 8
M  V30 15 1 17 14
M  V30 16 1 18 4
M  V30 17 2 18 13
M  V30 18 1 19 3
M  V30 19 2 19 7
M  V30 20 1 19 18
M  V30 21 1 20 1
M  V30 22 1 21 1
M  V30 23 1 22 2
M  V30 24 1 23 2
M  V30 25 1 24 3
M  V30 26 1 25 3
M  V30 27 1 26 5
M  V30 28 1 27 5
M  V30 29 1 28 7
M  V30 30 1 29 9
M  V30 31 1 30 9
M  V30 32 1 31 10
M  V30 33 1 32 10
M  V30 34 1 33 10
M  V30 35 1 34 11
M  V30 36 1 35 11
M  V30 37 1 36 12
M  V30 38 1 37 12
M  V30 39 1 38 12
M  V30 40 1 39 13
M  V30 41 1 40 16
M  V30 42 1 41 16
M  V30 43 1 15 42 CFG=1
M  V30 END BOND
M  V30 END CTAB
M  END
>  <i_epik_Tot_Q>  (1) 
0

>  <i_epik_Tot_abs_Q>  (1) 
2

>  <i_i_glide_confnum>  (1) 
7

>  <i_i_glide_lignum>  (1) 
50

>  <i_i_glide_posenum>  (1) 
383

>  <i_i_glide_rotatable_bonds>  (1) 
5

>  <i_lp_mmshare_version>  (1) 
72125

>  <i_m_source_file_index>  (1) 
29

>  <i_f3d_flags>  (1) 
0

>  <num_sample>  (1) 
100

>  <b_lp_Chiralities_Consistent>  (1) 
1

>  <r_epik_Charging_Adjusted_Penalty>  (1) 
1.2889852773217638

>  <r_epik_Ionization_Penalty>  (1) 
1.2889869126975093

>  <r_epik_Ionization_Penalty_Charging>  (1) 
0.026956894772998535

>  <r_epik_Ionization_Penalty_Neutral>  (1) 
1.2620300179245107

>  <r_epik_State_Penalty>  (1) 
1.2620283825487653

>  <r_glide_ring_energy>  (1) 
0

>  <r_i_docking_score>  (1) 
-4.0908750360615986

>  <r_i_glide_ecoul>  (1) 
-3.1559260598115846

>  <r_i_glide_eff_state_penalty>  (1) 
1.2620283825487653

>  <r_i_glide_einternal>  (1) 
9.1200336554026293

>  <r_i_glide_emodel>  (1) 
-40.086440596871881

>  <r_i_glide_emodel_strain>  (1) 
1.3988795250510577

>  <r_i_glide_energy>  (1) 
-33.175895578904942

>  <r_i_glide_erotb>  (1) 
1.0375715866235848

>  <r_i_glide_esite>  (1) 
-0.0091227524080416868

>  <r_i_glide_evdw>  (1) 
-30.019969519093358

>  <r_i_glide_gscore>  (1) 
-5.3529034186103637

>  <r_i_glide_gscore_strain>  (1) 
0

>  <r_i_glide_hbond>  (1) 
0

>  <r_i_glide_ligand_efficiency>  (1) 
-0.21530921242429465

>  <r_i_glide_ligand_efficiency_ln>  (1) 
-1.0371246855810414

>  <r_i_glide_ligand_efficiency_sa>  (1) 
-0.57453145741801148

>  <r_i_glide_lipo>  (1) 
-2.155895863205354

>  <r_i_glide_metal>  (1) 
-0

>  <r_i_glide_rewards>  (1) 
-2.2510690046941471

>  <r_lp_Energy>  (1) 
33.776638999999996

>  <s_epik_cmdline>  (1) 
J2VwaWtfcHl0aG9uJywgJy1waHQnLCAnMS4wJywgJy1waCcsICc3LjQnLCAnLXRuJywgJzgnLCAnLW1hJywgJzUwMCcsICctaW1hZScsICc8aW5maWxlLm1hZT4nLCAnLW9tYWUnLCAnPG91dGZpbGUubWFlPic=

>  <s_epik_input>  (1) 
W0NIMl0xW0NIMl1bQ0gyXVtDSDJdW0NIXT1DMWMoW2NIXVtuSF1jMj1PKW5jMltDSDJdW0NIMl1OKFtDSDNdKVtDSDJdW0NIM10=

>  <s_glide_docking_method>  (1) 
confgen

>  <s_i_glide_gridfile>  (1) 
gpcr_drd2_6luq_protein_autoprepared_prepared

>  <s_lp_Force_Field>  (1) 
S-OPLS

>  <s_lp_Variant>  (1) 
DiffSBDD_28_num_sample_100-4

>  <s_m_source_file>  (1) 
generated__ligand_DiffSBDD_2026-05-06_prepared.sdf

>  <GenAI_Model>  (1) 
DiffSBDD

>  <Protein>  (1) 
generic_title2

$$$$
DiffSBDD_10_num_sample_100
     RDKit          3D

  0  0  0  0  0  0  0  0  0  0999 V3000
M  V30 BEGIN CTAB
M  V30 COUNTS 72 75 0 0 1
M  V30 BEGIN ATOM
M  V30 1 Cl 6.082050 11.100740 -23.091667 0
M  V30 2 C 8.511235 4.025142 -14.015255 0 CFG=1
M  V30 3 O 8.105947 3.805746 -18.510790 0
M  V30 4 C 7.213772 3.911280 -20.747404 0 CFG=1
M  V30 5 C 8.975260 3.428854 -12.674581 0
M  V30 6 C 7.742592 6.709117 -11.753495 0
M  V30 7 C 9.023399 4.968647 -10.575523 0
M  V30 8 C 7.241423 5.184223 -16.623921 0
M  V30 9 C 6.105334 4.727125 -21.463888 0
M  V30 10 C 8.375658 6.569335 -13.146597 0
M  V30 11 C 6.799703 7.534049 -21.698592 0
M  V30 12 C 8.113209 3.990386 -17.085824 0 CFG=1
M  V30 13 C 9.034837 4.113618 -11.563014 0
M  V30 14 N 7.024233 1.724630 -16.844560 0 CHG=1
M  V30 15 C 6.156475 1.638905 -21.644004 0 CFG=2
M  V30 16 N 6.234845 0.288186 -21.067387 0
M  V30 17 O 8.546731 2.079825 -21.487032 0
M  V30 18 C 6.054421 -0.577777 -17.060697 0
M  V30 19 C 8.105549 7.223226 -22.106556 0
M  V30 20 C 6.983345 0.359332 -16.267822 0
M  V30 21 C 5.989362 1.544306 -23.169111 0
M  V30 22 N 8.634840 6.279069 -10.691678 0
M  V30 23 C 7.655756 2.950235 -14.749706 0
M  V30 24 C 7.801234 5.432008 -14.050555 0 CFG=1
M  V30 25 C 6.965581 3.771884 -19.245009 0
M  V30 26 S 5.844649 6.389164 -20.760506 0
M  V30 27 C 5.693342 0.236139 -19.717743 0
M  V30 28 C 7.858818 5.995191 -15.486547 0
M  V30 29 C 8.174473 9.387826 -23.162777 0
M  V30 30 C 6.857079 9.610696 -22.706433 0
M  V30 31 F 10.068987 7.927967 -23.272855 0
M  V30 32 C 7.401752 2.498180 -21.319447 0
M  V30 33 C 7.987515 2.685943 -16.243295 0 CFG=2
M  V30 34 C 8.806161 8.174708 -22.853691 0
M  V30 35 S 6.670952 -0.928298 -18.735819 0
M  V30 36 O 5.834840 3.646838 -18.784540 0
M  V30 37 N 6.172746 8.697039 -21.974305 0
M  V30 38 H 9.444088 4.169302 -14.555039 0
M  V30 39 H 8.162635 4.431492 -20.868329 0
M  V30 40 H 9.279262 2.391959 -12.691654 0
M  V30 41 H 6.792953 6.177980 -11.680850 0
M  V30 42 H 7.517487 7.759252 -11.565479 0
M  V30 43 H 9.313359 4.698506 -9.570482 0
M  V30 44 H 6.234839 4.890051 -16.359630 0
M  V30 45 H 7.135775 5.879450 -17.458766 0
M  V30 46 H 6.332535 4.830429 -22.525317 0
M  V30 47 H 5.142142 4.221049 -21.405076 0
M  V30 48 H 8.190247 7.538995 -13.605522 0
M  V30 49 H 9.463083 6.504703 -13.087681 0
M  V30 50 H 9.138888 4.320266 -16.922089 0
M  V30 51 H 6.097025 2.126277 -16.815494 0
M  V30 52 H 5.259787 2.118252 -21.253540 0
M  V30 53 H 5.733260 -0.383990 -21.633868 0
M  V30 54 H 5.037227 -0.186380 -17.108611 0
M  V30 55 H 5.988500 -1.530901 -16.534573 0
M  V30 56 H 8.558541 6.279020 -21.853524 0
M  V30 57 H 6.622945 0.403278 -15.240215 0
M  V30 58 H 7.990190 -0.060076 -16.235061 0
M  V30 59 H 5.917051 2.532401 -23.624021 0
M  V30 60 H 5.081144 1.003416 -23.437517 0
M  V30 61 H 6.830382 1.026839 -23.632955 0
M  V30 62 H 8.361647 6.750448 -9.829963 0
M  V30 63 H 7.759600 2.000033 -14.226899 0
M  V30 64 H 6.599331 3.196069 -14.641167 0
M  V30 65 H 6.751014 5.304669 -13.784341 0
M  V30 66 H 5.734232 1.201207 -19.226340 0
M  V30 67 H 4.645708 -0.066460 -19.745461 0
M  V30 68 H 8.903213 6.169299 -15.742712 0
M  V30 69 H 7.355472 6.963243 -15.491663 0
M  V30 70 H 8.688504 10.142186 -23.743092 0
M  V30 71 H 8.962298 2.197162 -16.291917 0
M  V30 72 H 7.284115 1.616595 -17.815504 0
M  V30 END ATOM
M  V30 BEGIN BOND
M  V30 1 1 5 2
M  V30 2 1 9 4
M  V30 3 1 10 6
M  V30 4 1 12 3
M  V30 5 1 12 8
M  V30 6 2 13 5
M  V30 7 2 13 7
M  V30 8 1 16 15
M  V30 9 2 19 11
M  V30 10 1 20 14
M  V30 11 1 20 18
M  V30 12 1 21 15
M  V30 13 1 22 6
M  V30 14 1 22 7
M  V30 15 1 23 2
M  V30 16 1 24 2
M  V30 17 1 24 10
M  V30 18 1 25 3
M  V30 19 1 25 4
M  V30 20 1 26 9
M  V30 21 1 26 11
M  V30 22 1 27 16
M  V30 23 1 28 8
M  V30 24 1 28 24
M  V30 25 1 30 1
M  V30 26 1 30 29
M  V30 27 1 32 4
M  V30 28 1 32 15
M  V30 29 2 32 17
M  V30 30 1 33 12
M  V30 31 1 33 14
M  V30 32 1 33 23
M  V30 33 1 34 19
M  V30 34 2 34 29
M  V30 35 1 34 31
M  V30 36 1 35 18
M  V30 37 1 35 27
M  V30 38 2 36 25
M  V30 39 1 37 11
M  V30 40 2 37 30
M  V30 41 1 2 38 CFG=3
M  V30 42 1 4 39 CFG=1
M  V30 43 1 40 5
M  V30 44 1 41 6
M  V30 45 1 42 6
M  V30 46 1 43 7
M  V30 47 1 44 8
M  V30 48 1 45 8
M  V30 49 1 46 9
M  V30 50 1 47 9
M  V30 51 1 48 10
M  V30 52 1 49 10
M  V30 53 1 12 50 CFG=1
M  V30 54 1 51 14
M  V30 55 1 15 52 CFG=1
M  V30 56 1 53 16
M  V30 57 1 54 18
M  V30 58 1 55 18
M  V30 59 1 56 19
M  V30 60 1 57 20
M  V30 61 1 58 20
M  V30 62 1 59 21
M  V30 63 1 60 21
M  V30 64 1 61 21
M  V30 65 1 62 22
M  V30 66 1 63 23
M  V30 67 1 64 23
M  V30 68 1 24 65 CFG=1
M  V30 69 1 66 27
M  V30 70 1 67 27
M  V30 71 1 68 28
M  V30 72 1 69 28
M  V30 73 1 70 29
M  V30 74 1 33 71 CFG=1
M  V30 75 1 72 14
M  V30 END BOND
M  V30 END CTAB
M  END
>  <i_epik_Tot_Q>  (1) 
1

>  <i_epik_Tot_abs_Q>  (1) 
1

>  <i_i_glide_confnum>  (1) 
11

>  <i_i_glide_lignum>  (1) 
16

>  <i_i_glide_posenum>  (1) 
50

>  <i_i_glide_rotatable_bonds>  (1) 
3

>  <i_lp_mmshare_version>  (1) 
72125

>  <i_m_source_file_index>  (1) 
11

>  <i_f3d_flags>  (1) 
0

>  <num_sample>  (1) 
100

>  <b_lp_Chiralities_Consistent>  (1) 
1

>  <r_epik_Charging_Adjusted_Penalty>  (1) 
0.12758977024119775

>  <r_epik_Ionization_Penalty>  (1) 
0.067546712429239514

>  <r_epik_Ionization_Penalty_Charging>  (1) 
0.063794885120598888

>  <r_epik_Ionization_Penalty_Neutral>  (1) 
0.0037518273086406219

>  <r_epik_State_Penalty>  (1) 
0.06379488512059886

>  <r_glide_ring_energy>  (1) 
0

>  <r_i_docking_score>  (1) 
-4.0845931715595318

>  <r_i_glide_ecoul>  (1) 
-7.5598566381064254

>  <r_i_glide_eff_state_penalty>  (1) 
0.06379488512059886

>  <r_i_glide_einternal>  (1) 
3.1936650061430392

>  <r_i_glide_emodel>  (1) 
-32.338528492603707

>  <r_i_glide_emodel_strain>  (1) 
1.9029968666195174

>  <r_i_glide_energy>  (1) 
-35.230256082075179

>  <r_i_glide_erotb>  (1) 
0.10236479025810979

>  <r_i_glide_esite>  (1) 
-0.08629947188143805

>  <r_i_glide_evdw>  (1) 
-27.670399443968751

>  <r_i_glide_gscore>  (1) 
-4.1483880566801306

>  <r_i_glide_gscore_strain>  (1) 
0

>  <r_i_glide_hbond>  (1) 
-0.10451580666737009

>  <r_i_glide_ligand_efficiency>  (1) 
-0.1103944100421495

>  <r_i_glide_ligand_efficiency_ln>  (1) 
-0.88585250246130265

>  <r_i_glide_ligand_efficiency_sa>  (1) 
-0.36785866544201412

>  <r_i_glide_lipo>  (1) 
-1.4184725098779145

>  <r_i_glide_metal>  (1) 
-0

>  <r_i_glide_rewards>  (1) 
-0.12396659059711668

>  <r_lp_Energy>  (1) 
41.039594999999998

>  <r_lp_tautomer_probability>  (1) 
0.99999998000000012

>  <s_epik_Chemistry_Notes>  (1) 
This compound has an ester and may undergo hydrolysis at high or low pH. This compound contains an acetal/aminal-like group ( X-CH(R)-Y where X, Y are N, S, or O) that may be acid/base labile, releasing an aldehyde.

>  <s_epik_cmdline>  (1) 
J2VwaWtfcHl0aG9uJywgJy1waHQnLCAnMS4wJywgJy1waCcsICc3LjQnLCAnLXRuJywgJzgnLCAnLW1hJywgJzUwMCcsICctaW1hZScsICc8aW5maWxlLm1hZT4nLCAnLW9tYWUnLCAnPG91dGZpbGUubWFlPic=

>  <s_epik_input>  (1) 
Q2xjKG4xKVtjSF1jKEYpW2NIXWMxU1tDSDJdW0NAQEhdKEMoTzIpPU8pQyg9TylbQ0BASF0oW0NIM10pW05IXVtDSDJdU1tDSDJdW0NIMl1bTkhdW0NASF0oW0NIMl0zKVtDQEBIXTJbQ0gyXVtDSDJdW0NAQEhdKFtDQEhdMzQpW0NIMl1bQ0gyXVtOSF1bQ0hdPUM9W0NIXTQ=

>  <s_glide_docking_method>  (1) 
confgen

>  <s_i_glide_gridfile>  (1) 
gpcr_drd2_6luq_protein_autoprepared_prepared

>  <s_lp_Force_Field>  (1) 
S-OPLS

>  <s_lp_Variant>  (1) 
DiffSBDD_10_num_sample_100-1

>  <s_m_source_file>  (1) 
generated__ligand_DiffSBDD_2026-05-06_prepared.sdf

>  <GenAI_Model>  (1) 
DiffSBDD

>  <Protein>  (1) 
generic_title2

$$$$
DiffSBDD_60_num_sample_100
     RDKit          3D

  0  0  0  0  0  0  0  0  0  0999 V3000
M  V30 BEGIN CTAB
M  V30 COUNTS 39 41 0 0 1
M  V30 BEGIN ATOM
M  V30 1 C 11.674235 6.969302 -12.753227 0
M  V30 2 N 8.634840 6.169301 -10.159588 0
M  V30 3 C 11.888964 8.095123 -8.351093 0
M  V30 4 C 11.017336 7.502046 -7.522200 0
M  V30 5 N 10.619144 6.113455 -12.291667 0
M  V30 6 C 8.939987 4.040097 -11.435128 0
M  V30 7 C 10.507570 7.632589 -10.349921 0 CFG=2
M  V30 8 N 11.709673 8.149589 -9.714116 0
M  V30 9 C 6.650401 5.096037 -10.870461 0
M  V30 10 C 9.744902 6.823311 -8.017959 0
M  V30 11 C 9.550484 5.832634 -13.239712 0
M  V30 12 C 8.096469 4.838431 -10.401688 0 CFG=2
M  V30 13 C 9.905445 6.444680 -9.518860 0 CFG=1
M  V30 14 C 10.558249 7.508751 -11.884610 0 CFG=1
M  V30 15 C 8.904218 4.490110 -12.910755 0
M  V30 16 C 5.834724 3.843242 -11.186403 0
M  V30 17 H 12.634843 6.855074 -12.291668 0
M  V30 18 H 11.709308 7.215736 -13.810967 0
M  V30 19 H 7.908487 6.834496 -9.837935 0
M  V30 20 H 12.792059 8.575584 -8.003033 0
M  V30 21 H 8.634865 3.000781 -11.491667 0
M  V30 22 H 9.957828 3.986615 -11.073891 0
M  V30 23 H 9.800816 8.449929 -10.194156 0
M  V30 24 H 6.655756 5.739686 -11.750957 0
M  V30 25 H 6.117906 5.664649 -10.107045 0
M  V30 26 H 8.910906 7.508500 -7.865790 0
M  V30 27 H 9.544179 5.930858 -7.424391 0
M  V30 28 H 8.771683 6.596032 -13.218968 0
M  V30 29 H 9.943249 5.769297 -14.255414 0
M  V30 30 H 8.070484 4.312589 -9.448080 0
M  V30 31 H 10.543571 5.574147 -9.491726 0
M  V30 32 H 9.849694 8.168913 -12.383218 0
M  V30 33 H 9.434818 3.744464 -13.490690 0
M  V30 34 H 7.887550 4.468071 -13.301457 0
M  V30 35 H 4.872193 4.147292 -11.592475 0
M  V30 36 H 5.660365 3.248251 -10.291698 0
M  V30 37 H 6.312045 3.211054 -11.933665 0
M  V30 38 H 11.199112 7.492241 -6.457698 0
M  V30 39 H 12.377600 8.640538 -10.291489 0
M  V30 END ATOM
M  V30 BEGIN BOND
M  V30 1 2 4 3
M  V30 2 1 5 1
M  V30 3 1 8 3
M  V30 4 1 8 7
M  V30 5 1 10 4
M  V30 6 1 11 5
M  V30 7 1 12 2
M  V30 8 1 12 6
M  V30 9 1 12 9
M  V30 10 1 13 2
M  V30 11 1 13 7
M  V30 12 1 13 10
M  V30 13 1 14 1
M  V30 14 1 14 5
M  V30 15 1 14 7
M  V30 16 1 15 6
M  V30 17 1 15 11
M  V30 18 1 16 9
M  V30 19 1 17 1
M  V30 20 1 18 1
M  V30 21 1 19 2
M  V30 22 1 20 3
M  V30 23 1 21 6
M  V30 24 1 22 6
M  V30 25 1 7 23 CFG=3
M  V30 26 1 24 9
M  V30 27 1 25 9
M  V30 28 1 26 10
M  V30 29 1 27 10
M  V30 30 1 28 11
M  V30 31 1 29 11
M  V30 32 1 12 30 CFG=1
M  V30 33 1 13 31 CFG=1
M  V30 34 1 14 32 CFG=3
M  V30 35 1 33 15
M  V30 36 1 34 15
M  V30 37 1 35 16
M  V30 38 1 36 16
M  V30 39 1 37 16
M  V30 40 1 38 4
M  V30 41 1 39 8
M  V30 END BOND
M  V30 END CTAB
M  END
>  <i_epik_Tot_Q>  (1) 
0

>  <i_epik_Tot_abs_Q>  (1) 
0

>  <i_i_glide_confnum>  (1) 
1

>  <i_i_glide_lignum>  (1) 
120

>  <i_i_glide_posenum>  (1) 
228

>  <i_i_glide_rotatable_bonds>  (1) 
1

>  <i_lp_mmshare_version>  (1) 
72125

>  <i_m_source_file_index>  (1) 
61

>  <i_f3d_flags>  (1) 
0

>  <num_sample>  (1) 
100

>  <b_lp_Chiralities_Consistent>  (1) 
1

>  <r_epik_Charging_Adjusted_Penalty>  (1) 
4.9692066631576726e-06

>  <r_epik_Ionization_Penalty>  (1) 
2.1336840305667621

>  <r_epik_Ionization_Penalty_Charging>  (1) 
4.9692066631576726e-06

>  <r_epik_Ionization_Penalty_Neutral>  (1) 
2.1336790613600991

>  <r_epik_State_Penalty>  (1) 
-0

>  <r_glide_ring_energy>  (1) 
0

>  <r_i_docking_score>  (1) 
-4.0833265683938933

>  <r_i_glide_ecoul>  (1) 
-4.3474658681688636

>  <r_i_glide_eff_state_penalty>  (1) 
-0

>  <r_i_glide_einternal>  (1) 
0.30916916866253397

>  <r_i_glide_emodel>  (1) 
-20.278500522509731

>  <r_i_glide_emodel_strain>  (1) 
0.030546124823835896

>  <r_i_glide_energy>  (1) 
-16.133301714351788

>  <r_i_glide_erotb>  (1) 
0

>  <r_i_glide_esite>  (1) 
0

>  <r_i_glide_evdw>  (1) 
-11.785835846182923

>  <r_i_glide_gscore>  (1) 
-4.0833265683938933

>  <r_i_glide_gscore_strain>  (1) 
0

>  <r_i_glide_hbond>  (1) 
-0.13616679961141984

>  <r_i_glide_ligand_efficiency>  (1) 
-0.25520791052461833

>  <r_i_glide_ligand_efficiency_ln>  (1) 
-1.0823672732525234

>  <r_i_glide_ligand_efficiency_sa>  (1) 
-0.64308363713930805

>  <r_i_glide_lipo>  (1) 
-0.80585055079345236

>  <r_i_glide_metal>  (1) 
-0

>  <r_i_glide_rewards>  (1) 
-1.8998975454545457

>  <r_lp_Energy>  (1) 
35.391235999999999

>  <r_lp_tautomer_probability>  (1) 
1

>  <s_epik_Chemistry_Notes>  (1) 
This compound has an imine and may undergo hydrolysis.

>  <s_epik_cmdline>  (1) 
J2VwaWtfcHl0aG9uJywgJy1waHQnLCAnMS4wJywgJy1waCcsICc3LjQnLCAnLXRuJywgJzgnLCAnLW1hJywgJzUwMCcsICctaW1hZScsICc8aW5maWxlLm1hZT4nLCAnLW9tYWUnLCAnPG91dGZpbGUubWFlPic=

>  <s_epik_input>  (1) 
W05IXTFbQ0hdPVtDSF1bQ0gyXVtDQEhdKFtDQEBIXTFbQ0BIXShOMjMpW0NIMl0yKVtOSF1bQ0BASF0oW0NIMl1bQ0gzXSlbQ0gyXVtDSDJdW0NIMl0z

>  <s_glide_docking_method>  (1) 
confgen

>  <s_i_glide_gridfile>  (1) 
gpcr_drd2_6luq_protein_autoprepared_prepared

>  <s_lp_Force_Field>  (1) 
S-OPLS

>  <s_lp_Variant>  (1) 
DiffSBDD_60_num_sample_100-1

>  <s_m_source_file>  (1) 
generated__ligand_DiffSBDD_2026-05-06_prepared.sdf

>  <GenAI_Model>  (1) 
DiffSBDD

>  <Protein>  (1) 
generic_title2

$$$$
DiffSBDD_10_num_sample_100
     RDKit          3D

  0  0  0  0  0  0  0  0  0  0999 V3000
M  V30 BEGIN CTAB
M  V30 COUNTS 72 75 0 0 1
M  V30 BEGIN ATOM
M  V30 1 Cl 13.034368 6.870700 -16.087961 0
M  V30 2 C 9.312893 5.352907 -10.712077 0 CFG=1
M  V30 3 O 9.260446 4.622642 -15.024835 0
M  V30 4 C 9.040169 4.251431 -17.379049 0 CFG=1
M  V30 5 C 9.434830 4.969459 -9.226369 0
M  V30 6 C 9.826044 8.706717 -9.210564 0
M  V30 7 C 9.709701 6.851165 -7.452173 0
M  V30 8 C 8.319639 6.410272 -13.491280 0
M  V30 9 C 8.612711 5.246742 -18.480286 0
M  V30 10 C 10.304069 7.774906 -10.349992 0
M  V30 11 C 11.232789 6.132091 -19.471199 0
M  V30 12 C 8.960871 5.020413 -13.687071 0 CFG=1
M  V30 13 C 9.510176 5.843231 -8.258057 0
M  V30 14 N 7.258551 3.219480 -13.308237 0 CHG=1
M  V30 15 C 7.514188 2.279937 -18.319117 0 CFG=2
M  V30 16 N 7.030812 1.017987 -17.730021 0
M  V30 17 O 9.778993 1.988147 -17.491769 0
M  V30 18 C 6.365674 0.895007 -13.698820 0
M  V30 19 C 12.044870 6.704484 -20.460988 0
M  V30 20 C 6.953282 1.900880 -12.701250 0
M  V30 21 C 7.660911 2.095725 -19.839334 0
M  V30 22 N 9.836500 8.165955 -7.851883 0
M  V30 23 C 8.129857 4.553857 -11.330821 0
M  V30 24 C 9.210533 6.887551 -11.031529 0 CFG=1
M  V30 25 C 8.377927 4.562121 -16.031119 0
M  V30 26 S 9.741895 5.284874 -19.909307 0
M  V30 27 C 6.419972 1.210265 -16.424464 0
M  V30 28 C 9.204196 7.244301 -12.536796 0
M  V30 29 C 13.524995 7.409390 -18.694007 0
M  V30 30 C 12.645740 6.804764 -17.767935 0
M  V30 31 F 14.033373 7.926187 -20.975806 0
M  V30 32 C 8.849670 2.763415 -17.714299 0
M  V30 33 C 8.426177 3.937643 -12.729687 0 CFG=2
M  V30 34 C 13.214703 7.356782 -20.060824 0
M  V30 35 S 7.475491 0.576791 -15.102816 0
M  V30 36 O 7.164114 4.733057 -15.919733 0
M  V30 37 N 11.506177 6.169251 -18.147889 0
M  V30 38 H 10.233361 4.987266 -11.164226 0
M  V30 39 H 10.109295 4.372853 -17.214316 0
M  V30 40 H 9.481345 3.922398 -9.007516 0
M  V30 41 H 8.849740 9.134382 -9.435928 0
M  V30 42 H 10.531879 9.534197 -9.185717 0
M  V30 43 H 9.813862 6.722298 -6.384587 0
M  V30 44 H 7.287818 6.360853 -13.145201 0
M  V30 45 H 8.234826 6.919899 -14.447600 0
M  V30 46 H 7.610985 5.020126 -18.843713 0
M  V30 47 H 8.557637 6.257501 -18.078083 0
M  V30 48 H 10.707241 8.456917 -11.091678 0
M  V30 49 H 11.171822 7.189994 -10.047560 0
M  V30 50 H 9.988342 5.147264 -13.347225 0
M  V30 51 H 6.439486 3.810590 -13.298050 0
M  V30 52 H 6.753951 3.046759 -18.168496 0
M  V30 53 H 6.367531 0.553571 -18.334717 0
M  V30 54 H 5.393002 1.230595 -14.052313 0
M  V30 55 H 6.186382 -0.055846 -13.193796 0
M  V30 56 H 11.774951 6.642964 -21.505276 0
M  V30 57 H 6.235001 2.047035 -11.891603 0
M  V30 58 H 7.862325 1.458868 -12.291719 0
M  V30 59 H 7.961874 3.019469 -20.332014 0
M  V30 60 H 6.715834 1.791712 -20.292066 0
M  V30 61 H 8.404305 1.336258 -20.085873 0
M  V30 62 H 9.832084 8.859969 -7.119478 0
M  V30 63 H 7.847170 3.769311 -10.647506 0
M  V30 64 H 7.232815 5.173618 -11.343032 0
M  V30 65 H 8.234843 7.196874 -10.691672 0
M  V30 66 H 6.234849 2.257063 -16.213723 0
M  V30 67 H 5.463491 0.687276 -16.403969 0
M  V30 68 H 10.242411 7.188894 -12.869957 0
M  V30 69 H 8.909139 8.290637 -12.635930 0
M  V30 70 H 14.422429 7.906381 -18.355146 0
M  V30 71 H 9.230192 3.207656 -12.622409 0
M  V30 72 H 7.490670 3.035325 -14.274831 0
M  V30 END ATOM
M  V30 BEGIN BOND
M  V30 1 1 5 2
M  V30 2 1 9 4
M  V30 3 1 10 6
M  V30 4 1 12 3
M  V30 5 1 12 8
M  V30 6 2 13 5
M  V30 7 2 13 7
M  V30 8 1 16 15
M  V30 9 2 19 11
M  V30 10 1 20 14
M  V30 11 1 20 18
M  V30 12 1 21 15
M  V30 13 1 22 6
M  V30 14 1 22 7
M  V30 15 1 23 2
M  V30 16 1 24 2
M  V30 17 1 24 10
M  V30 18 1 25 3
M  V30 19 1 25 4
M  V30 20 1 26 9
M  V30 21 1 26 11
M  V30 22 1 27 16
M  V30 23 1 28 8
M  V30 24 1 28 24
M  V30 25 1 30 1
M  V30 26 1 30 29
M  V30 27 1 32 4
M  V30 28 1 32 15
M  V30 29 2 32 17
M  V30 30 1 33 12
M  V30 31 1 33 14
M  V30 32 1 33 23
M  V30 33 1 34 19
M  V30 34 2 34 29
M  V30 35 1 34 31
M  V30 36 1 35 18
M  V30 37 1 35 27
M  V30 38 2 36 25
M  V30 39 1 37 11
M  V30 40 2 37 30
M  V30 41 1 2 38 CFG=3
M  V30 42 1 4 39 CFG=1
M  V30 43 1 40 5
M  V30 44 1 41 6
M  V30 45 1 42 6
M  V30 46 1 43 7
M  V30 47 1 44 8
M  V30 48 1 45 8
M  V30 49 1 46 9
M  V30 50 1 47 9
M  V30 51 1 48 10
M  V30 52 1 49 10
M  V30 53 1 12 50 CFG=1
M  V30 54 1 51 14
M  V30 55 1 15 52 CFG=3
M  V30 56 1 53 16
M  V30 57 1 54 18
M  V30 58 1 55 18
M  V30 59 1 56 19
M  V30 60 1 57 20
M  V30 61 1 58 20
M  V30 62 1 59 21
M  V30 63 1 60 21
M  V30 64 1 61 21
M  V30 65 1 62 22
M  V30 66 1 63 23
M  V30 67 1 64 23
M  V30 68 1 24 65 CFG=1
M  V30 69 1 66 27
M  V30 70 1 67 27
M  V30 71 1 68 28
M  V30 72 1 69 28
M  V30 73 1 70 29
M  V30 74 1 33 71 CFG=1
M  V30 75 1 72 14
M  V30 END BOND
M  V30 END CTAB
M  END
>  <i_epik_Tot_Q>  (1) 
1

>  <i_epik_Tot_abs_Q>  (1) 
1

>  <i_i_glide_confnum>  (1) 
24

>  <i_i_glide_lignum>  (1) 
16

>  <i_i_glide_posenum>  (1) 
266

>  <i_i_glide_rotatable_bonds>  (1) 
3

>  <i_lp_mmshare_version>  (1) 
72125

>  <i_m_source_file_index>  (1) 
11

>  <i_f3d_flags>  (1) 
0

>  <num_sample>  (1) 
100

>  <b_lp_Chiralities_Consistent>  (1) 
1

>  <r_epik_Charging_Adjusted_Penalty>  (1) 
0.12758977024119775

>  <r_epik_Ionization_Penalty>  (1) 
0.067546712429239514

>  <r_epik_Ionization_Penalty_Charging>  (1) 
0.063794885120598888

>  <r_epik_Ionization_Penalty_Neutral>  (1) 
0.0037518273086406219

>  <r_epik_State_Penalty>  (1) 
0.06379488512059886

>  <r_glide_ring_energy>  (1) 
0

>  <r_i_docking_score>  (1) 
-4.0822229785720765

>  <r_i_glide_ecoul>  (1) 
-1.1687326397074085

>  <r_i_glide_eff_state_penalty>  (1) 
0.06379488512059886

>  <r_i_glide_einternal>  (1) 
0.41862271871978163

>  <r_i_glide_emodel>  (1) 
-31.627328469471891

>  <r_i_glide_emodel_strain>  (1) 
1.1489074875492236

>  <r_i_glide_energy>  (1) 
-32.377792976795121

>  <r_i_glide_erotb>  (1) 
0.10236479025810979

>  <r_i_glide_esite>  (1) 
-0.064791000385089711

>  <r_i_glide_evdw>  (1) 
-31.20906033708771

>  <r_i_glide_gscore>  (1) 
-4.1460178636926752

>  <r_i_glide_gscore_strain>  (1) 
0

>  <r_i_glide_hbond>  (1) 
0

>  <r_i_glide_ligand_efficiency>  (1) 
-0.11033035077221828

>  <r_i_glide_ligand_efficiency_ln>  (1) 
-0.88533846316753084

>  <r_i_glide_ligand_efficiency_sa>  (1) 
-0.36764520574294879

>  <r_i_glide_lipo>  (1) 
-1.5409273051751067

>  <r_i_glide_metal>  (1) 
-0

>  <r_i_glide_rewards>  (1) 
-0.9069014355800914

>  <r_lp_Energy>  (1) 
41.039594999999998

>  <r_lp_tautomer_probability>  (1) 
0.99999998000000012

>  <s_epik_Chemistry_Notes>  (1) 
This compound has an ester and may undergo hydrolysis at high or low pH. This compound contains an acetal/aminal-like group ( X-CH(R)-Y where X, Y are N, S, or O) that may be acid/base labile, releasing an aldehyde.

>  <s_epik_cmdline>  (1) 
J2VwaWtfcHl0aG9uJywgJy1waHQnLCAnMS4wJywgJy1waCcsICc3LjQnLCAnLXRuJywgJzgnLCAnLW1hJywgJzUwMCcsICctaW1hZScsICc8aW5maWxlLm1hZT4nLCAnLW9tYWUnLCAnPG91dGZpbGUubWFlPic=

>  <s_epik_input>  (1) 
Q2xjKG4xKVtjSF1jKEYpW2NIXWMxU1tDSDJdW0NAQEhdKEMoTzIpPU8pQyg9TylbQ0BASF0oW0NIM10pW05IXVtDSDJdU1tDSDJdW0NIMl1bTkhdW0NASF0oW0NIMl0zKVtDQEBIXTJbQ0gyXVtDSDJdW0NAQEhdKFtDQEhdMzQpW0NIMl1bQ0gyXVtOSF1bQ0hdPUM9W0NIXTQ=

>  <s_glide_docking_method>  (1) 
confgen

>  <s_i_glide_gridfile>  (1) 
gpcr_drd2_6luq_protein_autoprepared_prepared

>  <s_lp_Force_Field>  (1) 
S-OPLS

>  <s_lp_Variant>  (1) 
DiffSBDD_10_num_sample_100-1

>  <s_m_source_file>  (1) 
generated__ligand_DiffSBDD_2026-05-06_prepared.sdf

>  <GenAI_Model>  (1) 
DiffSBDD

>  <Protein>  (1) 
generic_title2

$$$$
DiffSBDD_28_num_sample_100
     RDKit          3D

  0  0  0  0  0  0  0  0  0  0999 V3000
M  V30 BEGIN CTAB
M  V30 COUNTS 42 43 0 0 1
M  V30 BEGIN ATOM
M  V30 1 C 12.194528 6.773174 -2.515944 0
M  V30 2 C 6.638630 5.008066 -10.696293 0
M  V30 3 C 11.434841 6.733195 -3.855466 0
M  V30 4 N 10.650938 6.804396 -6.646035 0
M  V30 5 C 12.380026 9.284967 -2.663148 0
M  V30 6 C 10.482745 6.719604 -7.921668 0
M  V30 7 C 12.026578 9.148936 -4.125530 0
M  V30 8 O 10.855502 7.598687 -10.118947 0
M  V30 9 C 8.561197 5.840758 -9.383149 0
M  V30 10 C 8.930690 4.225332 -11.230400 0
M  V30 11 C 9.797789 5.506333 -8.537542 0
M  V30 12 C 6.590746 5.979817 -11.891471 0
M  V30 13 C 11.660402 8.931881 -7.050491 0
M  V30 14 N 11.505229 8.969293 -8.385059 0 CHG=-1
M  V30 15 N 8.005429 4.721458 -10.180190 0 CFG=2 CHG=1
M  V30 16 C 11.980954 8.100186 -1.791569 0
M  V30 17 C 10.972898 7.828951 -8.915662 0
M  V30 18 C 11.302098 7.943064 -6.139964 0
M  V30 19 C 11.589033 8.003415 -4.697345 0
M  V30 20 H 11.882103 5.939423 -1.886496 0
M  V30 21 H 13.261283 6.640657 -2.691740 0
M  V30 22 H 6.171149 4.065547 -10.982557 0
M  V30 23 H 6.030669 5.416145 -9.891667 0
M  V30 24 H 10.378267 6.524368 -3.707386 0
M  V30 25 H 11.812962 5.886810 -4.429278 0
M  V30 26 H 13.462338 9.369305 -2.631663 0
M  V30 27 H 11.954912 10.203425 -2.262200 0
M  V30 28 H 12.148049 10.038000 -4.715002 0
M  V30 29 H 7.834820 6.169252 -8.650962 0
M  V30 30 H 8.702499 6.669669 -10.068577 0
M  V30 31 H 9.264455 5.035132 -11.880698 0
M  V30 32 H 9.814818 3.768813 -10.791132 0
M  V30 33 H 8.455504 3.465713 -11.852162 0
M  V30 34 H 10.537862 4.969272 -9.091663 0
M  V30 35 H 9.480067 4.838339 -7.738500 0
M  V30 36 H 5.556019 6.177326 -12.174355 0
M  V30 37 H 7.042034 6.941569 -11.648542 0
M  V30 38 H 7.096154 5.579211 -12.769946 0
M  V30 39 H 12.195372 9.807248 -6.641961 0
M  V30 40 H 10.940290 8.169311 -1.491654 0
M  V30 41 H 12.578626 8.169295 -0.883389 0
M  V30 42 H 7.879702 3.965296 -9.522893 0
M  V30 END ATOM
M  V30 BEGIN BOND
M  V30 1 1 3 1
M  V30 2 2 6 4
M  V30 3 1 7 5
M  V30 4 1 11 6
M  V30 5 1 11 9
M  V30 6 1 12 2
M  V30 7 1 14 13
M  V30 8 1 15 2
M  V30 9 1 15 9
M  V30 10 1 15 10
M  V30 11 1 16 1
M  V30 12 1 16 5
M  V30 13 1 17 6
M  V30 14 2 17 8
M  V30 15 1 17 14
M  V30 16 1 18 4
M  V30 17 2 18 13
M  V30 18 1 19 3
M  V30 19 2 19 7
M  V30 20 1 19 18
M  V30 21 1 20 1
M  V30 22 1 21 1
M  V30 23 1 22 2
M  V30 24 1 23 2
M  V30 25 1 24 3
M  V30 26 1 25 3
M  V30 27 1 26 5
M  V30 28 1 27 5
M  V30 29 1 28 7
M  V30 30 1 29 9
M  V30 31 1 30 9
M  V30 32 1 31 10
M  V30 33 1 32 10
M  V30 34 1 33 10
M  V30 35 1 34 11
M  V30 36 1 35 11
M  V30 37 1 36 12
M  V30 38 1 37 12
M  V30 39 1 38 12
M  V30 40 1 39 13
M  V30 41 1 40 16
M  V30 42 1 41 16
M  V30 43 1 15 42 CFG=1
M  V30 END BOND
M  V30 END CTAB
M  END
>  <i_epik_Tot_Q>  (1) 
0

>  <i_epik_Tot_abs_Q>  (1) 
2

>  <i_i_glide_confnum>  (1) 
12

>  <i_i_glide_lignum>  (1) 
50

>  <i_i_glide_posenum>  (1) 
293

>  <i_i_glide_rotatable_bonds>  (1) 
5

>  <i_lp_mmshare_version>  (1) 
72125

>  <i_m_source_file_index>  (1) 
29

>  <i_f3d_flags>  (1) 
0

>  <num_sample>  (1) 
100

>  <b_lp_Chiralities_Consistent>  (1) 
1

>  <r_epik_Charging_Adjusted_Penalty>  (1) 
1.2889852773217638

>  <r_epik_Ionization_Penalty>  (1) 
1.2889869126975093

>  <r_epik_Ionization_Penalty_Charging>  (1) 
0.026956894772998535

>  <r_epik_Ionization_Penalty_Neutral>  (1) 
1.2620300179245107

>  <r_epik_State_Penalty>  (1) 
1.2620283825487653

>  <r_glide_ring_energy>  (1) 
0

>  <r_i_docking_score>  (1) 
-4.0732245148306028

>  <r_i_glide_ecoul>  (1) 
-4.0846439251102202

>  <r_i_glide_eff_state_penalty>  (1) 
1.2620283825487653

>  <r_i_glide_einternal>  (1) 
9.0417701731793301

>  <r_i_glide_emodel>  (1) 
-38.001580378625164

>  <r_i_glide_emodel_strain>  (1) 
0.76237011023795276

>  <r_i_glide_energy>  (1) 
-30.457829558107338

>  <r_i_glide_erotb>  (1) 
1.0375715866235848

>  <r_i_glide_esite>  (1) 
-0.046416981608348409

>  <r_i_glide_evdw>  (1) 
-26.373185632997117

>  <r_i_glide_gscore>  (1) 
-5.3352528973793678

>  <r_i_glide_gscore_strain>  (1) 
0

>  <r_i_glide_hbond>  (1) 
0

>  <r_i_glide_ligand_efficiency>  (1) 
-0.21438023762266331

>  <r_i_glide_ligand_efficiency_ln>  (1) 
-1.032649899350548

>  <r_i_glide_ligand_efficiency_sa>  (1) 
-0.5720525795257172

>  <r_i_glide_lipo>  (1) 
-2.2090554249683629

>  <r_i_glide_metal>  (1) 
-0

>  <r_i_glide_rewards>  (1) 
-2.1859962070098518

>  <r_lp_Energy>  (1) 
33.776638999999996

>  <s_epik_cmdline>  (1) 
J2VwaWtfcHl0aG9uJywgJy1waHQnLCAnMS4wJywgJy1waCcsICc3LjQnLCAnLXRuJywgJzgnLCAnLW1hJywgJzUwMCcsICctaW1hZScsICc8aW5maWxlLm1hZT4nLCAnLW9tYWUnLCAnPG91dGZpbGUubWFlPic=

>  <s_epik_input>  (1) 
W0NIMl0xW0NIMl1bQ0gyXVtDSDJdW0NIXT1DMWMoW2NIXVtuSF1jMj1PKW5jMltDSDJdW0NIMl1OKFtDSDNdKVtDSDJdW0NIM10=

>  <s_glide_docking_method>  (1) 
confgen

>  <s_i_glide_gridfile>  (1) 
gpcr_drd2_6luq_protein_autoprepared_prepared

>  <s_lp_Force_Field>  (1) 
S-OPLS

>  <s_lp_Variant>  (1) 
DiffSBDD_28_num_sample_100-4

>  <s_m_source_file>  (1) 
generated__ligand_DiffSBDD_2026-05-06_prepared.sdf

>  <GenAI_Model>  (1) 
DiffSBDD

>  <Protein>  (1) 
generic_title2

$$$$
DiffSBDD_69_num_sample_100
     RDKit          3D

  0  0  0  0  0  0  0  0  0  0999 V3000
M  V30 BEGIN CTAB
M  V30 COUNTS 56 58 0 0 1
M  V30 BEGIN ATOM
M  V30 1 C 7.687095 3.080930 -15.764690 0
M  V30 2 C 19.425853 7.421309 -18.904774 0
M  V30 3 C 7.793002 6.324564 -13.565537 0
M  V30 4 C 15.952204 4.743783 -16.369406 0 CFG=2
M  V30 5 N 11.236229 5.261552 -16.643436 0
M  V30 6 O 9.342439 4.844541 -15.568156 0
M  V30 7 O 14.361798 3.076500 -17.040799 0
M  V30 8 N 13.392213 6.109061 -17.430617 0
M  V30 9 C 12.419175 6.875240 -18.198635 0 CFG=1
M  V30 10 C 18.519745 9.561827 -18.343121 0
M  V30 11 C 7.535927 4.865230 -13.975306 0
M  V30 12 C 19.547020 8.747595 -18.842793 0
M  V30 13 C 15.317859 3.353052 -16.324502 0
M  V30 14 C 21.359205 7.947906 -19.644801 0
M  V30 15 O 20.497033 6.795883 -19.404122 0
M  V30 16 C 7.956886 4.556563 -15.422139 0 CFG=2
M  V30 17 O 20.718180 9.211754 -19.289826 0
M  V30 18 C 17.325733 8.953277 -17.892826 0
M  V30 19 F 15.834891 2.430983 -15.491668 0
M  V30 20 C 17.189168 7.540568 -17.951864 0
M  V30 21 C 18.265644 6.762647 -18.470062 0
M  V30 22 C 7.190461 6.715009 -12.208831 0 CFG=1
M  V30 23 O 9.243244 5.052903 -17.835887 0
M  V30 24 O 7.639550 8.014261 -11.891667 0
M  V30 25 O 12.754965 6.927097 -19.571371 0
M  V30 26 C 15.690497 5.568748 -17.696389 0 CFG=1
M  V30 27 C 9.881158 5.054443 -16.782094 0
M  V30 28 O 14.387303 5.444095 -18.277247 0
M  V30 29 O 17.248332 4.569307 -16.291708 0 CHG=-1
M  V30 30 C 5.655716 6.726659 -12.180227 0
M  V30 31 C 12.120582 5.474752 -17.732594 0 CFG=2
M  V30 32 O 16.017904 6.952702 -17.497228 0
M  V30 33 H 6.634780 2.843537 -15.644026 0
M  V30 34 H 8.235855 2.409392 -15.107950 0
M  V30 35 H 7.960708 2.841922 -16.792709 0
M  V30 36 H 8.870923 6.466714 -13.492057 0
M  V30 37 H 7.434734 7.003960 -14.340507 0
M  V30 38 H 15.412000 5.276461 -15.585011 0
M  V30 39 H 11.610093 5.226084 -15.703964 0
M  V30 40 H 11.913374 7.736677 -17.774251 0
M  V30 41 H 18.639845 10.633998 -18.301584 0
M  V30 42 H 8.055429 4.200245 -13.284190 0
M  V30 43 H 6.475410 4.637085 -13.878266 0
M  V30 44 H 22.267352 7.830152 -19.051428 0
M  V30 45 H 21.636322 7.972449 -20.699431 0
M  V30 46 H 7.376754 5.194694 -16.091784 0
M  V30 47 H 16.522045 9.559249 -17.502956 0
M  V30 48 H 18.205714 5.689359 -18.524754 0
M  V30 49 H 7.562602 6.038651 -11.437709 0
M  V30 50 H 7.434637 8.147071 -10.957981 0
M  V30 51 H 13.055033 7.801502 -19.767266 0
M  V30 52 H 16.275108 5.117735 -18.495209 0
M  V30 53 H 5.246624 5.730720 -12.343462 0
M  V30 54 H 5.247402 7.389542 -12.942717 0
M  V30 55 H 5.286347 7.065417 -11.210301 0
M  V30 56 H 12.132789 4.685560 -18.483693 0
M  V30 END ATOM
M  V30 BEGIN BOND
M  V30 1 1 9 8
M  V30 2 1 11 3
M  V30 3 2 12 2
M  V30 4 1 12 10
M  V30 5 1 13 4
M  V30 6 2 13 7
M  V30 7 1 15 2
M  V30 8 1 15 14
M  V30 9 1 16 1
M  V30 10 1 16 6
M  V30 11 1 16 11
M  V30 12 1 17 12
M  V30 13 1 17 14
M  V30 14 2 18 10
M  V30 15 1 19 13
M  V30 16 1 20 18
M  V30 17 1 21 2
M  V30 18 2 21 20
M  V30 19 1 22 3
M  V30 20 1 24 22
M  V30 21 1 25 9
M  V30 22 1 26 4
M  V30 23 1 27 5
M  V30 24 1 27 6
M  V30 25 2 27 23
M  V30 26 1 28 8
M  V30 27 1 28 26
M  V30 28 1 29 4
M  V30 29 1 30 22
M  V30 30 1 31 5
M  V30 31 1 31 8
M  V30 32 1 31 9
M  V30 33 1 32 20
M  V30 34 1 32 26
M  V30 35 1 33 1
M  V30 36 1 34 1
M  V30 37 1 35 1
M  V30 38 1 36 3
M  V30 39 1 37 3
M  V30 40 1 4 38 CFG=1
M  V30 41 1 39 5
M  V30 42 1 9 40 CFG=1
M  V30 43 1 41 10
M  V30 44 1 42 11
M  V30 45 1 43 11
M  V30 46 1 44 14
M  V30 47 1 45 14
M  V30 48 1 16 46 CFG=3
M  V30 49 1 47 18
M  V30 50 1 48 21
M  V30 51 1 22 49 CFG=1
M  V30 52 1 50 24
M  V30 53 1 51 25
M  V30 54 1 26 52 CFG=3
M  V30 55 1 53 30
M  V30 56 1 54 30
M  V30 57 1 55 30
M  V30 58 1 31 56 CFG=3
M  V30 END BOND
M  V30 END CTAB
M  END
>  <i_epik_Tot_Q>  (1) 
-1

>  <i_epik_Tot_abs_Q>  (1) 
1

>  <i_i_glide_confnum>  (1) 
436

>  <i_i_glide_lignum>  (1) 
139

>  <i_i_glide_posenum>  (1) 
145

>  <i_i_glide_rotatable_bonds>  (1) 
15

>  <i_lp_mmshare_version>  (1) 
72125

>  <i_m_source_file_index>  (1) 
70

>  <i_f3d_flags>  (1) 
0

>  <num_sample>  (1) 
100

>  <b_lp_Chiralities_Consistent>  (1) 
1

>  <r_epik_Charging_Adjusted_Penalty>  (1) 
0.75931899185534724

>  <r_epik_Ionization_Penalty>  (1) 
0.3796836148010711

>  <r_epik_Ionization_Penalty_Charging>  (1) 
0.37965949592767362

>  <r_epik_Ionization_Penalty_Neutral>  (1) 
2.4118873397482059e-05

>  <r_epik_State_Penalty>  (1) 
0.37965949592767362

>  <r_glide_ring_energy>  (1) 
0

>  <r_i_docking_score>  (1) 
-4.0535906130235375

>  <r_i_glide_ecoul>  (1) 
-11.029438586027634

>  <r_i_glide_eff_state_penalty>  (1) 
0.37965949592767362

>  <r_i_glide_einternal>  (1) 
16.112254352336269

>  <r_i_glide_emodel>  (1) 
-42.346060661642547

>  <r_i_glide_emodel_strain>  (1) 
1.8065793339621905

>  <r_i_glide_energy>  (1) 
-40.549286298784224

>  <r_i_glide_erotb>  (1) 
1.0486485046790583

>  <r_i_glide_esite>  (1) 
0

>  <r_i_glide_evdw>  (1) 
-29.519847712756594

>  <r_i_glide_gscore>  (1) 
-4.4332501089512109

>  <r_i_glide_gscore_strain>  (1) 
0

>  <r_i_glide_hbond>  (1) 
-0.33966663682456127

>  <r_i_glide_ligand_efficiency>  (1) 
-0.12667470665698555

>  <r_i_glide_ligand_efficiency_ln>  (1) 
-0.90770943496282419

>  <r_i_glide_ligand_efficiency_sa>  (1) 
-0.40216712521012393

>  <r_i_glide_lipo>  (1) 
-1.0887497435873363

>  <r_i_glide_metal>  (1) 
-0

>  <r_i_glide_rewards>  (1) 
-0.92307405967639722

>  <r_lp_Energy>  (1) 
45.431683

>  <r_lp_tautomer_probability>  (1) 
1

>  <s_epik_Chemistry_Notes>  (1) 
This compound has an ester and may undergo hydrolysis at high or low pH. This compound contains an acetal/aminal-like group ( X-CH(R)-Y where X, Y are N, S, or O) that may be acid/base labile, releasing an aldehyde. This compound has a N-S or N-O group and may undergo hydrolysis at high or low pH.

>  <s_epik_cmdline>  (1) 
J2VwaWtfcHl0aG9uJywgJy1waHQnLCAnMS4wJywgJy1waCcsICc3LjQnLCAnLXRuJywgJzgnLCAnLW1hJywgJzUwMCcsICctaW1hZScsICc8aW5maWxlLm1hZT4nLCAnLW9tYWUnLCAnPG91dGZpbGUubWFlPic=

>  <s_epik_input>  (1) 
W09IXVtDQEBIXShbQ0gzXSlbQ0gyXVtDSDJdW0NASF0oW0NIM10pT0MoPU8pW05IXVtDQEhdMVtDSF0oW09IXSlbTkBAXTFPW0NASF0oW0NAQEhdKEMoPU8pRilbT0hdKU9jKFtjSF0yKVtjSF1bY0hdYyhjMjMpT1tDSDJdTzM=

>  <s_glide_docking_method>  (1) 
confgen

>  <s_i_glide_gridfile>  (1) 
gpcr_drd2_6luq_protein_autoprepared_prepared

>  <s_lp_Force_Field>  (1) 
S-OPLS

>  <s_lp_Variant>  (1) 
DiffSBDD_69_num_sample_100-1

>  <s_m_source_file>  (1) 
generated__ligand_DiffSBDD_2026-05-06_prepared.sdf

>  <GenAI_Model>  (1) 
DiffSBDD

>  <Protein>  (1) 
generic_title2

$$$$
DiffSBDD_50_num_sample_100
     RDKit          3D

  0  0  0  0  0  0  0  0  0  0999 V3000
M  V30 BEGIN CTAB
M  V30 COUNTS 73 76 0 0 1
M  V30 BEGIN ATOM
M  V30 1 C 9.276684 1.304754 -19.663631 0
M  V30 2 C 8.664264 5.919538 -12.743837 0 CFG=1
M  V30 3 S 8.642025 0.656668 -17.239514 0
M  V30 4 C 4.809197 6.180735 -18.391881 0
M  V30 5 C 8.785031 2.498267 -17.592088 0 CFG=1
M  V30 6 C 6.281879 5.012925 -13.197497 0
M  V30 7 F 6.933047 4.729164 -23.466460 0
M  V30 8 C 8.321611 3.567364 -12.383710 0
M  V30 9 O 7.640920 5.769301 -10.516378 0
M  V30 10 O 5.810052 5.884045 -13.963731 0
M  V30 11 C 8.326466 5.563344 -18.131828 0
M  V30 12 C 9.032588 0.303241 -18.862958 0
M  V30 13 C 9.487784 8.098367 -10.783909 0
M  V30 14 O 5.141500 7.138988 -23.173024 0 CHG=-1
M  V30 15 C 5.379421 5.174354 -19.459442 0 CFG=2
M  V30 16 F 8.340180 4.689321 -21.820889 0
M  V30 17 C 4.975719 7.451029 -18.664776 0
M  V30 18 N 6.265908 7.147252 -22.680518 0 CHG=1
M  V30 19 O 9.954798 5.769466 -13.340177 0
M  V30 20 C 8.136491 4.430910 -14.835180 0
M  V30 21 O 6.406207 4.291062 -18.995107 0
M  V30 22 C 6.552010 6.202218 -21.640980 0 CHG=-1
M  V30 23 C 9.189940 2.694900 -19.128593 0
M  V30 24 C 9.184966 4.194173 -11.263091 0
M  V30 25 C 7.159667 4.602604 -17.817779 0 CFG=1
M  V30 26 C 7.277612 3.366336 -15.566114 0 CFG=2
M  V30 27 C 9.225729 8.345951 -12.268147 0
M  V30 28 C 8.847536 5.668937 -11.242040 0 CFG=1
M  V30 29 C 7.060252 4.860000 -22.145058 0
M  V30 30 N 9.050481 -1.030764 -19.181879 0
M  V30 31 O 5.625094 4.350313 -12.362459 0 CHG=-1
M  V30 32 C 9.854463 6.630074 -10.559310 0
M  V30 33 C 8.197363 7.384146 -12.906070 0
M  V30 34 O 7.376369 2.115195 -14.918594 0
M  V30 35 C 7.490873 3.245422 -17.118943 0 CFG=2
M  V30 36 C 5.879492 6.380568 -20.363993 0
M  V30 37 C 7.819276 4.722030 -13.316562 0 CFG=2
M  V30 38 O 7.158669 7.913901 -23.021846 0
M  V30 39 C 5.620335 7.580331 -19.855881 0
M  V30 40 H 9.531712 1.158630 -20.703277 0
M  V30 41 H 4.323513 5.821192 -17.495550 0
M  V30 42 H 9.625086 2.864376 -17.000126 0
M  V30 43 H 7.503290 3.005055 -11.951843 0
M  V30 44 H 8.919256 2.832141 -12.922015 0
M  V30 45 H 7.454139 6.675890 -10.231418 0
M  V30 46 H 9.050112 5.615884 -17.321262 0
M  V30 47 H 8.863390 5.296055 -19.037863 0
M  V30 48 H 7.948734 6.570995 -18.293103 0
M  V30 49 H 8.634917 8.432650 -10.216716 0
M  V30 50 H 10.326950 8.694486 -10.423960 0
M  V30 51 H 4.582813 4.624964 -19.958381 0
M  V30 52 H 4.653822 8.263883 -18.039693 0
M  V30 53 H 10.293176 4.903398 -13.160251 0
M  V30 54 H 8.016236 5.382953 -15.347420 0
M  V30 55 H 9.180878 4.169492 -14.984166 0
M  V30 56 H 8.445303 3.212972 -19.723239 0
M  V30 57 H 10.148911 3.202650 -19.238642 0
M  V30 58 H 10.234746 4.081543 -11.509983 0
M  V30 59 H 9.036921 3.769272 -10.290351 0
M  V30 60 H 6.532225 5.118280 -17.095178 0
M  V30 61 H 6.238466 3.646251 -15.430954 0
M  V30 62 H 8.916901 9.371792 -12.422951 0
M  V30 63 H 10.195486 8.196279 -12.722121 0
M  V30 64 H 6.496959 4.041940 -21.699267 0
M  V30 65 H 9.214060 -1.349252 -20.124577 0
M  V30 66 H 9.953663 6.398998 -9.499260 0
M  V30 67 H 10.846429 6.568628 -11.000095 0
M  V30 68 H 7.241569 7.536357 -12.405602 0
M  V30 69 H 8.011372 7.623394 -13.948896 0
M  V30 70 H 8.184797 1.698036 -15.174077 0
M  V30 71 H 6.679863 2.581899 -17.426705 0
M  V30 72 H 5.879548 8.521018 -20.318642 0
M  V30 73 H 8.780295 -1.739695 -18.514124 0
M  V30 END ATOM
M  V30 BEGIN BOND
M  V30 1 1 5 3
M  V30 2 2 10 6
M  V30 3 2 12 1
M  V30 4 1 12 3
M  V30 5 1 15 4
M  V30 6 2 17 4
M  V30 7 1 18 14
M  V30 8 1 2 19 CFG=3
M  V30 9 1 21 15
M  V30 10 1 22 18
M  V30 11 1 23 1
M  V30 12 1 23 5
M  V30 13 1 24 8
M  V30 14 1 25 11
M  V30 15 1 25 21
M  V30 16 1 26 20
M  V30 17 1 27 13
M  V30 18 1 28 2
M  V30 19 1 28 9 CFG=1
M  V30 20 1 28 24
M  V30 21 1 29 7
M  V30 22 1 29 16
M  V30 23 1 29 22
M  V30 24 1 30 12
M  V30 25 1 31 6
M  V30 26 1 32 13
M  V30 27 1 32 28
M  V30 28 1 33 2
M  V30 29 1 33 27
M  V30 30 1 34 26
M  V30 31 1 35 5
M  V30 32 1 35 25
M  V30 33 1 35 26
M  V30 34 1 36 15
M  V30 35 1 36 22
M  V30 36 1 37 2
M  V30 37 1 37 6
M  V30 38 1 37 8
M  V30 39 1 37 20 CFG=3
M  V30 40 2 38 18
M  V30 41 1 39 17
M  V30 42 2 39 36
M  V30 43 1 40 1
M  V30 44 1 41 4
M  V30 45 1 5 42 CFG=1
M  V30 46 1 43 8
M  V30 47 1 44 8
M  V30 48 1 45 9
M  V30 49 1 46 11
M  V30 50 1 47 11
M  V30 51 1 48 11
M  V30 52 1 49 13
M  V30 53 1 50 13
M  V30 54 1 15 51 CFG=3
M  V30 55 1 52 17
M  V30 56 1 53 19
M  V30 57 1 54 20
M  V30 58 1 55 20
M  V30 59 1 56 23
M  V30 60 1 57 23
M  V30 61 1 58 24
M  V30 62 1 59 24
M  V30 63 1 25 60 CFG=1
M  V30 64 1 26 61 CFG=3
M  V30 65 1 62 27
M  V30 66 1 63 27
M  V30 67 1 64 29
M  V30 68 1 65 30
M  V30 69 1 66 32
M  V30 70 1 67 32
M  V30 71 1 68 33
M  V30 72 1 69 33
M  V30 73 1 70 34
M  V30 74 1 35 71 CFG=3
M  V30 75 1 72 39
M  V30 76 1 73 30
M  V30 END BOND
M  V30 END CTAB
M  END
>  <i_epik_Tot_Q>  (1) 
-2

>  <i_epik_Tot_abs_Q>  (1) 
4

>  <i_i_glide_confnum>  (1) 
827

>  <i_i_glide_lignum>  (1) 
95

>  <i_i_glide_posenum>  (1) 
179

>  <i_i_glide_rotatable_bonds>  (1) 
14

>  <i_lp_mmshare_version>  (1) 
72125

>  <i_m_source_file_index>  (1) 
51

>  <i_f3d_flags>  (1) 
0

>  <num_sample>  (1) 
100

>  <b_lp_Chiralities_Consistent>  (1) 
1

>  <r_epik_Charging_Adjusted_Penalty>  (1) 
0.034577084899783249

>  <r_epik_Ionization_Penalty>  (1) 
0.017860666668860211

>  <r_epik_Ionization_Penalty_Charging>  (1) 
0.017835632133054159

>  <r_epik_Ionization_Penalty_Neutral>  (1) 
2.5034535806051729e-05

>  <r_epik_State_Penalty>  (1) 
0.01674145276672909

>  <r_glide_ring_energy>  (1) 
0

>  <r_i_docking_score>  (1) 
-4.0507820703476298

>  <r_i_glide_ecoul>  (1) 
-5.9407418303577257

>  <r_i_glide_eff_state_penalty>  (1) 
0.01674145276672909

>  <r_i_glide_einternal>  (1) 
11.796840480501906

>  <r_i_glide_emodel>  (1) 
-19.412840727931894

>  <r_i_glide_emodel_strain>  (1) 
2.768800902131261

>  <r_i_glide_energy>  (1) 
-22.721761237718091

>  <r_i_glide_erotb>  (1) 
0.41647013485751849

>  <r_i_glide_esite>  (1) 
-0.00046597780338848601

>  <r_i_glide_evdw>  (1) 
-16.781019407360365

>  <r_i_glide_gscore>  (1) 
-4.0675235231143585

>  <r_i_glide_gscore_strain>  (1) 
0

>  <r_i_glide_hbond>  (1) 
-0.29563771990446758

>  <r_i_glide_ligand_efficiency>  (1) 
-0.10386620693199052

>  <r_i_glide_ligand_efficiency_ln>  (1) 
-0.86860266416965437

>  <r_i_glide_ligand_efficiency_sa>  (1) 
-0.35223226949024361

>  <r_i_glide_lipo>  (1) 
-1.9434943179793067

>  <r_i_glide_metal>  (1) 
-0

>  <r_i_glide_rewards>  (1) 
-0.51423339736303686

>  <r_lp_Energy>  (1) 
37.244749999999996

>  <s_epik_Chemistry_Notes>  (1) 
This compound has an imine and may undergo hydrolysis.

>  <s_epik_cmdline>  (1) 
J2VwaWtfcHl0aG9uJywgJy1waHQnLCAnMS4wJywgJy1waCcsICc3LjQnLCAnLXRuJywgJzgnLCAnLW1hJywgJzUwMCcsICctaW1hZScsICc8aW5maWxlLm1hZT4nLCAnLW9tYWUnLCAnPG91dGZpbGUubWFlPic=

>  <s_epik_input>  (1) 
W0NIMl0xW0NIMl1bQ0gyXVtDSDJdW0NAQF0oW09IXSkoW0NAXTEyW09IXSlbQ0gyXVtDSDJdW0NAXTIoQyg9TylbT0hdKVtDSDJdW0NASF0oW09IXSlbQ0BIXShbQ0BIXTNTQyg9Ti9bSF0pXFtDSDJdW0NIMl0zKVtDQEBIXShbQ0gzXSlPW0NASF00W0NIXT1bQ0hdW0NIXT1DNFtDQEBIXShbTitdKFtPLV0pPU8pW0NIXShGKUY=

>  <s_glide_docking_method>  (1) 
confgen

>  <s_i_glide_gridfile>  (1) 
gpcr_drd2_6luq_protein_autoprepared_prepared

>  <s_lp_Force_Field>  (1) 
S-OPLS

>  <s_lp_Variant>  (1) 
DiffSBDD_50_num_sample_100-1

>  <s_m_source_file>  (1) 
generated__ligand_DiffSBDD_2026-05-06_prepared.sdf

>  <GenAI_Model>  (1) 
DiffSBDD

>  <Protein>  (1) 
generic_title2

$$$$
DiffSBDD_47_num_sample_100
     RDKit          3D

  0  0  0  0  0  0  0  0  0  0999 V3000
M  V30 BEGIN CTAB
M  V30 COUNTS 60 66 0 0 1
M  V30 BEGIN ATOM
M  V30 1 C 10.513753 7.116104 -8.356946 0 CFG=1
M  V30 2 N 7.439293 4.569300 -10.190300 0
M  V30 3 N 5.076597 -1.191181 -17.271886 0
M  V30 4 C 6.272052 7.708735 -15.328552 0
M  V30 5 C 7.400620 2.808645 -17.115933 0
M  V30 6 C 9.435925 6.217856 -10.431699 0
M  V30 7 C 10.351252 7.026527 -9.831862 0
M  V30 8 C 4.374361 -0.883073 -18.365204 0
M  V30 9 N 4.898784 0.038072 -19.151088 0
M  V30 10 N 7.968501 4.656596 -15.502499 0
M  V30 11 N 7.433265 5.344267 -12.411201 0
M  V30 12 N 7.954859 1.742890 -17.959977 0
M  V30 13 N 8.753505 5.353874 -12.525824 0
M  V30 14 C 6.186402 -0.320961 -17.453260 0
M  V30 15 C 6.075192 0.415794 -18.581721 0
M  V30 16 C 8.634865 5.369287 -8.299251 0
M  V30 17 C 8.412688 3.414411 -16.130020 0
M  V30 18 N 7.271460 -0.233041 -16.613455 0
M  V30 19 C 6.797909 4.673459 -11.409940 0
M  V30 20 C 6.767554 4.548636 -14.671166 0
M  V30 21 O 5.689530 4.169305 -11.580162 0
M  V30 22 O 5.510472 6.355960 -13.431614 0
M  V30 23 F 11.190312 7.750072 -10.599432 0
M  V30 24 C 7.035101 1.409243 -19.111298 0 CFG=2
M  V30 25 C 7.793711 0.854815 -20.324337 0
M  V30 26 C 8.406514 0.556582 -17.121891 0
M  V30 27 C 9.455850 6.141509 -11.847793 0
M  V30 28 C 6.745097 5.663273 -13.632725 0 CFG=1
M  V30 29 C 6.588096 7.133449 -13.966161 0 CFG=1
M  V30 30 C 9.636043 6.179637 -7.552293 0 CFG=2
M  V30 31 C 8.512428 5.369302 -9.643201 0
M  V30 32 C 10.821940 8.444562 -7.698853 0
M  V30 33 C 9.521814 7.696506 -7.439840 0 CFG=1
M  V30 34 H 6.947303 4.020460 -9.501081 0
M  V30 35 H 7.034242 8.437175 -15.598620 0
M  V30 36 H 6.235758 6.929972 -16.089508 0
M  V30 37 H 5.306600 8.213780 -15.304119 0
M  V30 38 H 6.543827 2.428392 -16.562853 0
M  V30 39 H 7.032061 3.613267 -17.752694 0
M  V30 40 H 3.434834 -1.362216 -18.593672 0
M  V30 41 H 8.722332 5.002305 -14.914699 0
M  V30 42 H 4.508635 0.383737 -20.016992 0
M  V30 43 H 7.955910 4.775457 -7.705201 0
M  V30 44 H 9.349797 3.601197 -16.656074 0
M  V30 45 H 8.634380 2.690181 -15.349271 0
M  V30 46 H 7.413428 -0.914943 -15.878544 0
M  V30 47 H 6.726932 3.585788 -14.159705 0
M  V30 48 H 5.873393 4.620161 -15.286209 0
M  V30 49 H 6.500724 2.303855 -19.434509 0
M  V30 50 H 7.110874 0.624177 -21.142274 0
M  V30 51 H 8.519012 1.580211 -20.693296 0
M  V30 52 H 8.333013 -0.059475 -20.075309 0
M  V30 53 H 9.021205 -0.103573 -17.734363 0
M  V30 54 H 9.034849 0.866034 -16.291648 0
M  V30 55 H 10.175038 6.799282 -12.333262 0
M  V30 56 H 7.031548 7.827893 -13.256007 0
M  V30 57 H 10.111750 5.652511 -6.731323 0
M  V30 58 H 10.826487 9.314792 -8.350355 0
M  V30 59 H 11.567580 8.445986 -6.906771 0
M  V30 60 H 8.634877 8.146491 -7.875262 0
M  V30 END ATOM
M  V30 BEGIN BOND
M  V30 1 1 7 1
M  V30 2 2 7 6
M  V30 3 2 8 3
M  V30 4 1 9 8
M  V30 5 1 12 5
M  V30 6 1 13 11
M  V30 7 1 14 3
M  V30 8 1 15 9
M  V30 9 2 15 14
M  V30 10 1 17 5
M  V30 11 1 17 10
M  V30 12 1 18 14
M  V30 13 1 19 2
M  V30 14 1 19 11
M  V30 15 1 20 10
M  V30 16 2 21 19
M  V30 17 1 23 7
M  V30 18 1 24 12
M  V30 19 1 24 15
M  V30 20 1 25 24
M  V30 21 1 26 12
M  V30 22 1 26 18
M  V30 23 1 27 6
M  V30 24 2 27 13
M  V30 25 1 28 11
M  V30 26 1 28 20 CFG=3
M  V30 27 1 28 22
M  V30 28 1 29 4
M  V30 29 1 29 22
M  V30 30 1 29 28
M  V30 31 1 30 1
M  V30 32 1 30 16
M  V30 33 1 31 2
M  V30 34 1 31 6
M  V30 35 2 31 16
M  V30 36 1 1 32 CFG=1
M  V30 37 1 33 1
M  V30 38 1 33 30
M  V30 39 1 33 32
M  V30 40 1 34 2
M  V30 41 1 35 4
M  V30 42 1 36 4
M  V30 43 1 37 4
M  V30 44 1 38 5
M  V30 45 1 39 5
M  V30 46 1 40 8
M  V30 47 1 41 10
M  V30 48 1 42 9
M  V30 49 1 43 16
M  V30 50 1 44 17
M  V30 51 1 45 17
M  V30 52 1 46 18
M  V30 53 1 47 20
M  V30 54 1 48 20
M  V30 55 1 24 49 CFG=3
M  V30 56 1 50 25
M  V30 57 1 51 25
M  V30 58 1 52 25
M  V30 59 1 53 26
M  V30 60 1 54 26
M  V30 61 1 55 27
M  V30 62 1 29 56 CFG=1
M  V30 63 1 30 57 CFG=1
M  V30 64 1 58 32
M  V30 65 1 59 32
M  V30 66 1 33 60 CFG=3
M  V30 END BOND
M  V30 END CTAB
M  END
>  <i_epik_Tot_Q>  (1) 
0

>  <i_epik_Tot_abs_Q>  (1) 
0

>  <i_i_glide_confnum>  (1) 
81

>  <i_i_glide_lignum>  (1) 
88

>  <i_i_glide_posenum>  (1) 
375

>  <i_i_glide_rotatable_bonds>  (1) 
6

>  <i_lp_mmshare_version>  (1) 
72125

>  <i_m_source_file_index>  (1) 
48

>  <i_f3d_flags>  (1) 
2

>  <num_sample>  (1) 
100

>  <b_lp_Chiralities_Consistent>  (1) 
0

>  <r_epik_Charging_Adjusted_Penalty>  (1) 
0.98731157914139778

>  <r_epik_Ionization_Penalty>  (1) 
1.0089239767468481

>  <r_epik_Ionization_Penalty_Charging>  (1) 
0.0054720513801765243

>  <r_epik_Ionization_Penalty_Neutral>  (1) 
1.0034519253666716

>  <r_epik_State_Penalty>  (1) 
0.9818395277612213

>  <r_glide_ring_energy>  (1) 
0

>  <r_i_docking_score>  (1) 
-4.0506351015949766

>  <r_i_glide_ecoul>  (1) 
-3.4781822402110265

>  <r_i_glide_eff_state_penalty>  (1) 
0.9818395277612213

>  <r_i_glide_einternal>  (1) 
5.0604149220982695

>  <r_i_glide_emodel>  (1) 
-50.50802392225382

>  <r_i_glide_emodel_strain>  (1) 
0.82586742060556162

>  <r_i_glide_energy>  (1) 
-42.904282869406174

>  <r_i_glide_erotb>  (1) 
0.58326009776632259

>  <r_i_glide_esite>  (1) 
-0.094618318799383011

>  <r_i_glide_evdw>  (1) 
-39.426100629195147

>  <r_i_glide_gscore>  (1) 
-5.0324746293561979

>  <r_i_glide_gscore_strain>  (1) 
0

>  <r_i_glide_hbond>  (1) 
-0.10035867305427333

>  <r_i_glide_ligand_efficiency>  (1) 
-0.12274651823015081

>  <r_i_glide_ligand_efficiency_ln>  (1) 
-0.90084027352862106

>  <r_i_glide_ligand_efficiency_sa>  (1) 
-0.3937136711106673

>  <r_i_glide_lipo>  (1) 
-0.98921451277317574

>  <r_i_glide_metal>  (1) 
-0

>  <r_i_glide_rewards>  (1) 
-1.9385108550042764

>  <r_lp_Energy>  (1) 
73.522155999999995

>  <r_lp_tautomer_probability>  (1) 
0.94542902837213583

>  <s_epik_Chemistry_Notes>  (1) 
This compound has an imine and may undergo hydrolysis. This compound contains an acetal/aminal-like group ( X-CH(R)-Y where X, Y are N, S, or O) that may be acid/base labile, releasing an aldehyde.

>  <s_epik_cmdline>  (1) 
J2VwaWtfcHl0aG9uJywgJy1waHQnLCAnMS4wJywgJy1waCcsICc3LjQnLCAnLXRuJywgJzgnLCAnLW1hJywgJzUwMCcsICctaW1hZScsICc8aW5maWxlLm1hZT4nLCAnLW9tYWUnLCAnPG91dGZpbGUubWFlPic=

>  <s_epik_input>  (1) 
W0NIMl0xW0NAQEhdMltDQEhdKEMxMjMpW0NIXT1DNEMoPUMzRilbQ0hdPU5OKEMoPU8pW05IXTQpW0NAXTUoT1tDQEBIXTVbQ0gzXSlbQ0gyXVtOSF1bQ0gyXVtDSDJdTihbQ0gyXVtOSF02KVtDQEBIXShbQ0gzXSlbQ0BIXShDNjcpTj1bQ0hdTj03

>  <s_glide_docking_method>  (1) 
confgen

>  <s_i_glide_gridfile>  (1) 
gpcr_drd2_6luq_protein_autoprepared_prepared

>  <s_lp_Force_Field>  (1) 
S-OPLS

>  <s_lp_Variant>  (1) 
DiffSBDD_47_num_sample_100-2

>  <s_m_source_file>  (1) 
generated__ligand_DiffSBDD_2026-05-06_prepared.sdf

>  <GenAI_Model>  (1) 
DiffSBDD

>  <Protein>  (1) 
generic_title2

$$$$
DiffSBDD_39_num_sample_100
     RDKit          3D

  0  0  0  0  0  0  0  0  0  0999 V3000
M  V30 BEGIN CTAB
M  V30 COUNTS 66 70 0 0 1
M  V30 BEGIN ATOM
M  V30 1 C 5.563736 5.880446 -18.212083 0 CFG=2
M  V30 2 N 9.290021 5.681786 -8.592095 0
M  V30 3 C 9.614941 6.809417 -10.738553 0
M  V30 4 C 8.859296 4.835926 -15.178478 0
M  V30 5 C 9.434840 5.451762 -20.690922 0 CFG=2
M  V30 6 C 10.419356 7.777143 -10.116239 0
M  V30 7 C 10.939101 5.608291 -20.589587 0
M  V30 8 C 7.286631 3.281236 -18.203252 0
M  V30 9 C 7.196567 4.768337 -12.840710 0 CFG=2
M  V30 10 C 6.765270 5.970631 -15.908821 0
M  V30 11 N 8.203297 4.771810 -10.462360 0
M  V30 12 C 6.206875 5.910401 -14.740982 0
M  V30 13 C 7.181779 5.281953 -11.370796 0
M  V30 14 O 10.044170 6.498181 -19.917620 0
M  V30 15 C 6.015273 6.721270 -17.006925 0
M  V30 16 C 6.674245 5.535699 -19.215424 0
M  V30 17 C 10.040386 6.649327 -8.015702 0
M  V30 18 C 10.627349 7.702352 -8.735110 0
M  V30 19 C 8.769819 4.297210 -19.919632 0
M  V30 20 C 9.252064 7.107598 -22.672045 0
M  V30 21 O 4.634336 6.665320 -18.927746 0
M  V30 22 C 8.079964 5.369309 -16.179576 0
M  V30 23 C 8.629329 5.366147 -17.609080 0
M  V30 24 C 7.826428 4.635617 -18.716799 0 CFG=2
M  V30 25 C 8.663582 5.890270 -21.939559 0
M  V30 26 C 9.746685 5.550919 -12.947843 0
M  V30 27 C 9.397495 6.871541 -12.251686 0
M  V30 28 N 10.227000 6.569148 -6.641126 0
M  V30 29 C 9.044097 5.771995 -9.923365 0
M  V30 30 C 8.583704 4.790752 -13.631065 0 CFG=2
M  V30 31 C 6.083381 5.501084 -13.524266 0
M  V30 32 H 5.043798 4.982940 -17.891850 0
M  V30 33 H 9.816177 4.425307 -15.465100 0
M  V30 34 H 10.868796 8.569464 -10.692206 0
M  V30 35 H 11.499407 4.953669 -19.925106 0
M  V30 36 H 11.499171 6.063399 -21.402463 0
M  V30 37 H 6.712324 2.763299 -18.972311 0
M  V30 38 H 8.099739 2.620273 -17.901025 0
M  V30 39 H 6.635114 3.391343 -17.340087 0
M  V30 40 H 6.869296 3.727554 -12.805074 0
M  V30 41 H 7.078938 6.363859 -11.299643 0
M  V30 42 H 6.244152 4.939107 -10.930242 0
M  V30 43 H 6.634839 7.547302 -17.339310 0
M  V30 44 H 5.131777 7.196928 -16.571741 0
M  V30 45 H 6.213362 5.057529 -20.081890 0
M  V30 46 H 7.094027 6.475731 -19.574084 0
M  V30 47 H 11.229555 8.443038 -8.231813 0
M  V30 48 H 9.563166 3.639942 -19.560945 0
M  V30 49 H 8.223593 3.689577 -20.642994 0
M  V30 50 H 8.606979 7.408885 -23.496900 0
M  V30 51 H 9.349641 7.964939 -22.004503 0
M  V30 52 H 10.233056 6.893264 -23.093682 0
M  V30 53 H 5.060849 7.462373 -19.204915 0
M  V30 54 H 8.778766 6.404540 -17.891791 0
M  V30 55 H 9.634866 4.944289 -17.581121 0
M  V30 56 H 8.614666 5.047488 -22.629785 0
M  V30 57 H 7.634061 6.121164 -21.676010 0
M  V30 58 H 10.530980 5.768843 -13.674487 0
M  V30 59 H 10.243869 4.880380 -12.246671 0
M  V30 60 H 8.427711 7.273545 -12.537916 0
M  V30 61 H 10.089704 7.621348 -12.634459 0
M  V30 62 H 10.737559 7.275509 -6.136697 0
M  V30 63 H 8.890123 3.755203 -13.475542 0
M  V30 64 H 5.198203 5.715134 -12.942752 0
M  V30 65 H 9.783116 5.844990 -6.094265 0
M  V30 66 H 7.872122 4.095631 -9.791482 0
M  V30 END ATOM
M  V30 BEGIN BOND
M  V30 1 1 6 3
M  V30 2 1 7 5
M  V30 3 2 12 10
M  V30 4 1 13 9
M  V30 5 1 13 11
M  V30 6 1 14 5
M  V30 7 1 14 7
M  V30 8 1 15 1
M  V30 9 1 15 10
M  V30 10 1 16 1
M  V30 11 2 17 2
M  V30 12 2 18 6
M  V30 13 1 18 17
M  V30 14 1 5 19 CFG=1
M  V30 15 1 21 1
M  V30 16 2 22 4
M  V30 17 1 22 10
M  V30 18 1 23 22
M  V30 19 1 24 8 CFG=1
M  V30 20 1 24 16
M  V30 21 1 24 19
M  V30 22 1 24 23
M  V30 23 1 25 5
M  V30 24 1 25 20
M  V30 25 1 27 3
M  V30 26 1 27 26
M  V30 27 1 28 17
M  V30 28 1 29 2
M  V30 29 2 29 3
M  V30 30 1 29 11
M  V30 31 1 30 4
M  V30 32 1 30 9
M  V30 33 1 30 26
M  V30 34 1 31 9
M  V30 35 2 31 12
M  V30 36 1 1 32 CFG=1
M  V30 37 1 33 4
M  V30 38 1 34 6
M  V30 39 1 35 7
M  V30 40 1 36 7
M  V30 41 1 37 8
M  V30 42 1 38 8
M  V30 43 1 39 8
M  V30 44 1 9 40 CFG=1
M  V30 45 1 41 13
M  V30 46 1 42 13
M  V30 47 1 43 15
M  V30 48 1 44 15
M  V30 49 1 45 16
M  V30 50 1 46 16
M  V30 51 1 47 18
M  V30 52 1 48 19
M  V30 53 1 49 19
M  V30 54 1 50 20
M  V30 55 1 51 20
M  V30 56 1 52 20
M  V30 57 1 53 21
M  V30 58 1 54 23
M  V30 59 1 55 23
M  V30 60 1 56 25
M  V30 61 1 57 25
M  V30 62 1 58 26
M  V30 63 1 59 26
M  V30 64 1 60 27
M  V30 65 1 61 27
M  V30 66 1 62 28
M  V30 67 1 30 63 CFG=1
M  V30 68 1 64 31
M  V30 69 1 65 28
M  V30 70 1 66 11
M  V30 END BOND
M  V30 END CTAB
M  END
>  <i_epik_Tot_Q>  (1) 
0

>  <i_epik_Tot_abs_Q>  (1) 
0

>  <i_i_glide_confnum>  (1) 
1

>  <i_i_glide_lignum>  (1) 
69

>  <i_i_glide_posenum>  (1) 
344

>  <i_i_glide_rotatable_bonds>  (1) 
4

>  <i_lp_mmshare_version>  (1) 
72125

>  <i_m_source_file_index>  (1) 
40

>  <i_f3d_flags>  (1) 
0

>  <num_sample>  (1) 
100

>  <b_lp_Chiralities_Consistent>  (1) 
1

>  <r_epik_Charging_Adjusted_Penalty>  (1) 
0

>  <r_epik_Ionization_Penalty>  (1) 
0.1664306043943147

>  <r_epik_Ionization_Penalty_Charging>  (1) 
0

>  <r_epik_Ionization_Penalty_Neutral>  (1) 
0.1664306043943147

>  <r_epik_State_Penalty>  (1) 
-0

>  <r_glide_ring_energy>  (1) 
0

>  <r_i_docking_score>  (1) 
-4.0479483834810095

>  <r_i_glide_ecoul>  (1) 
-0.029719005637484086

>  <r_i_glide_eff_state_penalty>  (1) 
-0

>  <r_i_glide_einternal>  (1) 
8.6136491616087341

>  <r_i_glide_emodel>  (1) 
-28.686955014618107

>  <r_i_glide_emodel_strain>  (1) 
4.7904670983892856

>  <r_i_glide_energy>  (1) 
-32.21174577164075

>  <r_i_glide_erotb>  (1) 
0.22283361910969357

>  <r_i_glide_esite>  (1) 
-0.030358723370881004

>  <r_i_glide_evdw>  (1) 
-32.182026766003268

>  <r_i_glide_gscore>  (1) 
-4.0479483834810095

>  <r_i_glide_gscore_strain>  (1) 
0.19761677459732141

>  <r_i_glide_hbond>  (1) 
0

>  <r_i_glide_ligand_efficiency>  (1) 
-0.13057898011229063

>  <r_i_glide_ligand_efficiency_ln>  (1) 
-0.91293641519451296

>  <r_i_glide_ligand_efficiency_sa>  (1) 
-0.41019828173375034

>  <r_i_glide_lipo>  (1) 
-1.5491541697620979

>  <r_i_glide_metal>  (1) 
-0

>  <r_i_glide_rewards>  (1) 
-1.2753266949092592

>  <r_lp_Energy>  (1) 
40.513892999999996

>  <r_lp_tautomer_probability>  (1) 
1

>  <s_epik_cmdline>  (1) 
J2VwaWtfcHl0aG9uJywgJy1waHQnLCAnMS4wJywgJy1waCcsICc3LjQnLCAnLXRuJywgJzgnLCAnLW1hJywgJzUwMCcsICctaW1hZScsICc8aW5maWxlLm1hZT4nLCAnLW9tYWUnLCAnPG91dGZpbGUubWFlPic=

>  <s_epik_input>  (1) 
TzFbQ0gyXVtDQEBdMShbQ0gyXVtDSDNdKVtDSDJdW0NAQF0oW0NIM10pKFtDSDJdMilbQ0gyXVtDQEhdKFtPSF0pW0NIMl1DKD1DPVtDSF0zKUMyPVtDSF1bQ0BASF0oW0NIMl1bQ0gyXTQpW0NASF0zW0NIMl1bTkhdQyhbQ0BIXTQ1KT1OL0MoPU4vW0hdKVtDSF09W0NIXTU=

>  <s_glide_docking_method>  (1) 
confgen

>  <s_i_glide_gridfile>  (1) 
gpcr_drd2_6luq_protein_autoprepared_prepared

>  <s_lp_Force_Field>  (1) 
S-OPLS

>  <s_lp_Variant>  (1) 
DiffSBDD_39_num_sample_100-1

>  <s_m_source_file>  (1) 
generated__ligand_DiffSBDD_2026-05-06_prepared.sdf

>  <GenAI_Model>  (1) 
DiffSBDD

>  <Protein>  (1) 
generic_title2

$$$$
DiffSBDD_7_num_sample_100
     RDKit          3D

  0  0  0  0  0  0  0  0  0  0999 V3000
M  V30 BEGIN CTAB
M  V30 COUNTS 60 64 0 0 1
M  V30 BEGIN ATOM
M  V30 1 C 6.680648 4.955292 -13.442389 0 CFG=1
M  V30 2 C 10.345872 7.919540 -9.722350 0
M  V30 3 C 10.091315 7.283180 -8.487176 0
M  V30 4 O 7.460356 3.766449 -13.295638 0
M  V30 5 C 7.855214 5.190071 -17.047931 0 CFG=2
M  V30 6 C 6.227643 1.111476 -20.419839 0
M  V30 7 F 10.909245 7.072402 -6.297282 0
M  V30 8 C 7.480167 3.286630 -19.935227 0
M  V30 9 C 7.715715 1.786774 -17.770909 0 CFG=2
M  V30 10 C 10.466130 7.967907 -7.181168 0
M  V30 11 C 7.634931 4.765224 -12.279497 0 CFG=1
M  V30 12 C 6.886995 -0.700371 -17.639254 0
M  V30 13 F 11.426359 8.877588 -7.360441 0
M  V30 14 C 6.007735 5.826854 -15.596173 0 CFG=1
M  V30 15 C 6.983080 6.232013 -17.775709 0
M  V30 16 N 7.119476 5.634180 -14.664432 0
M  V30 17 C 6.145730 6.889173 -16.662516 0
M  V30 18 C 9.099094 1.247047 -18.219385 0
M  V30 19 O 9.142448 0.571895 -19.272219 0
M  V30 20 C 6.514896 0.786189 -17.861313 0 CFG=2
M  V30 21 F 9.392435 8.569312 -6.676354 0
M  V30 22 O 10.077369 1.524529 -17.491667 0 CHG=-1
M  V30 23 C 9.487420 6.009158 -8.466185 0
M  V30 24 C 9.147191 5.369336 -9.672999 0
M  V30 25 C 9.059706 5.298259 -12.213416 0
M  V30 26 O 4.539520 0.049020 -19.091669 0
M  V30 27 C 9.407183 6.001134 -10.908529 0
M  V30 28 C 7.391403 3.179793 -18.388110 0 CFG=1
M  V30 29 C 7.055496 2.102643 -20.804762 0
M  V30 30 C 10.003867 7.279276 -10.930841 0
M  V30 31 O 8.326913 4.135057 -17.885546 0
M  V30 32 C 7.034775 4.774866 -15.843689 0 CFG=2
M  V30 33 C 5.561910 1.024130 -19.063683 0 CFG=2
M  V30 34 H 5.607951 4.816235 -13.321905 0
M  V30 35 H 10.804891 8.896604 -9.742708 0
M  V30 36 H 8.748038 5.694729 -16.676042 0
M  V30 37 H 6.001738 0.316347 -21.116126 0
M  V30 38 H 8.529023 3.447823 -20.188274 0
M  V30 39 H 6.958975 4.178875 -20.281103 0
M  V30 40 H 7.847464 1.952640 -16.701052 0
M  V30 41 H 7.197681 4.459061 -11.332156 0
M  V30 42 H 7.368929 -1.133021 -18.515142 0
M  V30 43 H 7.559636 -0.819406 -16.788945 0
M  V30 44 H 6.005167 -1.305341 -17.428077 0
M  V30 45 H 5.034841 5.606647 -15.165577 0
M  V30 46 H 7.575346 6.953132 -18.338553 0
M  V30 47 H 6.308265 5.744119 -18.478294 0
M  V30 48 H 6.634844 7.767163 -16.240124 0
M  V30 49 H 5.165551 7.195202 -17.029065 0
M  V30 50 H 5.900358 1.025573 -16.991835 0
M  V30 51 H 9.288194 5.521728 -7.523558 0
M  V30 52 H 8.693021 4.392533 -9.651762 0
M  V30 53 H 9.746720 4.458728 -12.327815 0
M  V30 54 H 9.243349 5.959922 -13.060182 0
M  V30 55 H 3.999881 0.195439 -19.853316 0
M  V30 56 H 6.385969 3.467172 -18.086950 0
M  V30 57 H 7.473183 2.075905 -21.800322 0
M  V30 58 H 10.203906 7.766460 -11.873982 0
M  V30 59 H 6.835859 3.728278 -15.623780 0
M  V30 60 H 5.035016 1.966843 -18.920209 0
M  V30 END ATOM
M  V30 BEGIN BOND
M  V30 1 2 3 2
M  V30 2 1 4 1
M  V30 3 1 10 3
M  V30 4 1 10 7
M  V30 5 1 11 1
M  V30 6 1 11 4
M  V30 7 1 13 10
M  V30 8 1 15 5
M  V30 9 1 16 1
M  V30 10 1 16 14
M  V30 11 1 17 14
M  V30 12 1 17 15
M  V30 13 1 18 9
M  V30 14 2 19 18
M  V30 15 1 20 9
M  V30 16 1 20 12
M  V30 17 1 21 10
M  V30 18 1 22 18
M  V30 19 1 23 3
M  V30 20 2 24 23
M  V30 21 1 25 11
M  V30 22 1 27 24
M  V30 23 1 27 25
M  V30 24 1 28 8
M  V30 25 1 28 9
M  V30 26 2 29 6
M  V30 27 1 29 8
M  V30 28 1 30 2
M  V30 29 2 30 27
M  V30 30 1 31 5
M  V30 31 1 31 28
M  V30 32 1 32 5
M  V30 33 1 32 14
M  V30 34 1 32 16
M  V30 35 1 33 6
M  V30 36 1 33 20
M  V30 37 1 33 26
M  V30 38 1 1 34 CFG=1
M  V30 39 1 35 2
M  V30 40 1 5 36 CFG=1
M  V30 41 1 37 6
M  V30 42 1 38 8
M  V30 43 1 39 8
M  V30 44 1 9 40 CFG=1
M  V30 45 1 11 41 CFG=1
M  V30 46 1 42 12
M  V30 47 1 43 12
M  V30 48 1 44 12
M  V30 49 1 14 45 CFG=1
M  V30 50 1 46 15
M  V30 51 1 47 15
M  V30 52 1 48 17
M  V30 53 1 49 17
M  V30 54 1 20 50 CFG=1
M  V30 55 1 51 23
M  V30 56 1 52 24
M  V30 57 1 53 25
M  V30 58 1 54 25
M  V30 59 1 55 26
M  V30 60 1 28 56 CFG=1
M  V30 61 1 57 29
M  V30 62 1 58 30
M  V30 63 1 32 59 CFG=1
M  V30 64 1 33 60 CFG=1
M  V30 END BOND
M  V30 END CTAB
M  END
>  <i_epik_Tot_Q>  (1) 
-1

>  <i_epik_Tot_abs_Q>  (1) 
1

>  <i_i_glide_confnum>  (1) 
196

>  <i_i_glide_lignum>  (1) 
12

>  <i_i_glide_posenum>  (1) 
213

>  <i_i_glide_rotatable_bonds>  (1) 
8

>  <i_lp_mmshare_version>  (1) 
72125

>  <i_m_source_file_index>  (1) 
8

>  <i_f3d_flags>  (1) 
2

>  <num_sample>  (1) 
100

>  <b_lp_Chiralities_Consistent>  (1) 
0

>  <r_epik_Charging_Adjusted_Penalty>  (1) 
0.34130138700725487

>  <r_epik_Ionization_Penalty>  (1) 
0.34130148480546119

>  <r_epik_Ionization_Penalty_Charging>  (1) 
0.00038214034829849426

>  <r_epik_Ionization_Penalty_Neutral>  (1) 
0.34091934445716271

>  <r_epik_State_Penalty>  (1) 
0.3409192466589564

>  <r_glide_ring_energy>  (1) 
2.1549545404665214

>  <r_i_docking_score>  (1) 
-4.0430030562719397

>  <r_i_glide_ecoul>  (1) 
0.369763297486848

>  <r_i_glide_eff_state_penalty>  (1) 
0.3409192466589564

>  <r_i_glide_einternal>  (1) 
11.294049195966441

>  <r_i_glide_emodel>  (1) 
-36.616440481552033

>  <r_i_glide_emodel_strain>  (1) 
0.79730652067608787

>  <r_i_glide_energy>  (1) 
-34.094817997714678

>  <r_i_glide_erotb>  (1) 
0.46357030645473651

>  <r_i_glide_esite>  (1) 
-0.046319389610385682

>  <r_i_glide_evdw>  (1) 
-34.464581295201526

>  <r_i_glide_gscore>  (1) 
-4.3839223029308965

>  <r_i_glide_gscore_strain>  (1) 
0

>  <r_i_glide_hbond>  (1) 
0

>  <r_i_glide_ligand_efficiency>  (1) 
-0.12251524412945272

>  <r_i_glide_ligand_efficiency_ln>  (1) 
-0.89914294616539348

>  <r_i_glide_ligand_efficiency_sa>  (1) 
-0.39297185149303926

>  <r_i_glide_lipo>  (1) 
-1.2639111828853218

>  <r_i_glide_metal>  (1) 
-0

>  <r_i_glide_rewards>  (1) 
-1.8694974667528765

>  <r_lp_Energy>  (1) 
31.397698999999999

>  <s_epik_Chemistry_Notes>  (1) 
This compound contains an acetal/aminal-like group ( X-CH(R)-Y where X, Y are N, S, or O) that may be acid/base labile, releasing an aldehyde.

>  <s_epik_cmdline>  (1) 
J2VwaWtfcHl0aG9uJywgJy1waHQnLCAnMS4wJywgJy1waCcsICc3LjQnLCAnLXRuJywgJzgnLCAnLW1hJywgJzUwMCcsICctaW1hZScsICc8aW5maWxlLm1hZT4nLCAnLW9tYWUnLCAnPG91dGZpbGUubWFlPic=

>  <s_epik_input>  (1) 
RkMoRikoRiljMVtjSF1bY0hdYyhbY0hdW2NIXTEpW0NIMl1bQ0BASF0yT1tDSF0yTjNbQ0BASF0oW0NASF0zNClbQ0BIXShbQ0gyXVtDSDJdNClPW0NASF01W0NIMl1bQ0hdPVtDSF1bQ0BASF0oW09IXSlbQ0BASF0oW0NIM10pW0NASF01Qyg9TylbT0hd

>  <s_glide_docking_method>  (1) 
confgen

>  <s_i_glide_gridfile>  (1) 
gpcr_drd2_6luq_protein_autoprepared_prepared

>  <s_lp_Force_Field>  (1) 
S-OPLS

>  <s_lp_Variant>  (1) 
DiffSBDD_7_num_sample_100-1

>  <s_m_source_file>  (1) 
generated__ligand_DiffSBDD_2026-05-06_prepared.sdf

>  <GenAI_Model>  (1) 
DiffSBDD

>  <Protein>  (1) 
generic_title2

$$$$
DiffSBDD_0_num_sample_100
     RDKit          3D

  0  0  0  0  0  0  0  0  0  0999 V3000
M  V30 BEGIN CTAB
M  V30 COUNTS 105 110 0 0 1
M  V30 BEGIN ATOM
M  V30 1 C 14.846922 10.093613 -18.954694 0
M  V30 2 C 6.591341 3.106019 -19.370251 0
M  V30 3 O 9.779464 1.738277 -20.227729 0
M  V30 4 C 9.998018 1.920451 -21.612522 0 CFG=1
M  V30 5 S 4.809316 7.162568 -17.617469 0
M  V30 6 C 13.884741 7.837086 -19.806798 0 CFG=1
M  V30 7 C 12.910434 7.632811 -22.759553 0
M  V30 8 C 11.244146 4.645661 -22.076500 0 CFG=2
M  V30 9 C 6.645366 -1.055731 -17.361501 0
M  V30 10 C 11.735157 7.171709 -21.872205 0
M  V30 11 C 13.406034 6.429324 -19.299266 0 CFG=1
M  V30 12 C 14.313087 7.172324 -22.316889 0
M  V30 13 C 7.188880 6.140466 -18.466083 0 CFG=1
M  V30 14 O 3.503108 6.569308 -17.091646 0
M  V30 15 C 8.757704 5.669220 -19.795564 0 CFG=2
M  V30 16 N 5.834816 -3.408634 -17.091668 0 CHG=1
M  V30 17 C 15.260302 6.612044 -17.503837 0
M  V30 18 O 4.635001 7.439865 -19.293050 0
M  V30 19 O 8.787325 7.650137 -21.092130 0
M  V30 20 C 7.205893 5.608319 -19.916897 0 CFG=1
M  V30 21 C 12.629691 5.448508 -20.234776 0
M  V30 22 C 4.877431 -4.847098 -18.881143 0
M  V30 23 O 9.360094 6.958153 -19.942146 0
M  V30 24 O 9.526670 4.583861 -20.305502 0
M  V30 25 S 12.708533 3.742518 -19.879225 0
M  V30 26 C 14.606976 5.738620 -18.585964 0
M  V30 27 C 5.551301 1.993040 -19.622876 0
M  V30 28 C 6.684987 3.988374 -21.827492 0
M  V30 29 C 6.286906 0.395292 -17.728176 0
M  V30 30 C 6.010639 0.580251 -19.229519 0
M  V30 31 C 12.099691 3.419254 -21.593392 0 CFG=1
M  V30 32 O 7.034947 -5.936783 -17.024008 0
M  V30 33 C 6.138143 -4.156321 -18.329012 0 CFG=2
M  V30 34 C 6.453470 4.322196 -20.324704 0 CFG=1
M  V30 35 C 5.427363 -1.999070 -17.277680 0
M  V30 36 C 9.206348 3.119146 -22.207707 0 CFG=1
M  V30 37 C 7.228938 -5.188514 -18.007516 0
M  V30 38 C 11.504242 2.029827 -21.870971 0
M  V30 39 N 15.636218 7.930724 -18.043716 0 CHG=1
M  V30 40 O 8.234836 -5.201534 -18.749345 0 CHG=-1
M  V30 41 N 6.063769 5.955161 -17.551034 0
M  V30 42 C 14.480141 8.640578 -18.619156 0 CFG=1
M  V30 43 C 7.675499 2.853412 -22.186705 0
M  V30 44 C 11.913512 5.768056 -21.319093 0
M  V30 45 C 14.835140 7.834195 -21.035232 0
M  V30 46 C 9.727572 4.495779 -21.716033 0 CFG=2
M  V30 47 C 8.556815 5.473720 -18.284045 0
M  V30 48 H 14.025400 10.569376 -19.485036 0
M  V30 49 H 15.734369 10.168951 -19.582745 0
M  V30 50 H 15.030654 10.675207 -18.050755 0
M  V30 51 H 7.600402 2.709009 -19.431085 0
M  V30 52 H 6.476268 3.417153 -18.334009 0
M  V30 53 H 10.262095 0.979571 -19.937930 0
M  V30 54 H 9.648128 1.005008 -22.091878 0
M  V30 55 H 13.028936 8.449756 -20.052219 0
M  V30 56 H 12.885257 8.718178 -22.866752 0
M  V30 57 H 12.744145 7.237211 -23.762353 0
M  V30 58 H 11.371163 4.775979 -23.151874 0
M  V30 59 H 7.146784 -1.047697 -16.392899 0
M  V30 60 H 7.379610 -1.435828 -18.073098 0
M  V30 61 H 11.455778 7.879397 -21.100202 0
M  V30 62 H 10.861543 7.158270 -22.521670 0
M  V30 63 H 12.670788 6.633296 -18.519052 0
M  V30 64 H 14.360948 6.087030 -22.231280 0
M  V30 65 H 15.012883 7.409195 -23.118904 0
M  V30 66 H 7.362567 7.217803 -18.481808 0
M  V30 67 H 5.130457 -3.906486 -16.550942 0
M  V30 68 H 16.148779 6.121175 -17.105725 0
M  V30 69 H 14.573662 6.747317 -16.666766 0
M  V30 70 H 5.321389 6.976735 -19.745737 0
M  V30 71 H 9.382524 7.386477 -21.776766 0
M  V30 72 H 6.833089 6.405636 -20.555840 0
M  V30 73 H 5.107860 -5.422491 -19.778717 0
M  V30 74 H 4.109813 -4.119605 -19.146949 0
M  V30 75 H 4.441609 -5.532084 -18.152324 0
M  V30 76 H 14.299282 4.825635 -18.078080 0
M  V30 77 H 15.352086 5.442405 -19.325282 0
M  V30 78 H 4.634814 2.234889 -19.092161 0
M  V30 79 H 5.275177 1.962318 -20.676438 0
M  V30 80 H 6.916944 4.889113 -22.396203 0
M  V30 81 H 5.718688 3.674874 -22.224610 0
M  V30 82 H 5.435056 0.729341 -17.136470 0
M  V30 83 H 7.118758 1.042001 -17.446324 0
M  V30 84 H 6.903583 0.318654 -19.798879 0
M  V30 85 H 5.239516 -0.121839 -19.546732 0
M  V30 86 H 13.023415 3.454302 -22.173418 0
M  V30 87 H 6.531203 -3.467192 -19.079074 0
M  V30 88 H 5.398218 4.592337 -20.258096 0
M  V30 89 H 4.815653 -1.709112 -16.422700 0
M  V30 90 H 4.787281 -1.914172 -18.156095 0
M  V30 91 H 9.453859 3.118121 -23.270673 0
M  V30 92 H 12.056782 1.257519 -21.334133 0
M  V30 93 H 11.664128 1.815893 -22.928608 0
M  V30 94 H 16.027256 8.491173 -17.300326 0
M  V30 95 H 5.716097 5.007539 -17.523825 0
M  V30 96 H 13.718546 8.693176 -17.838886 0
M  V30 97 H 7.462885 1.969323 -21.589856 0
M  V30 98 H 7.409627 2.526996 -23.193276 0
M  V30 99 H 15.069673 8.863880 -21.302683 0
M  V30 100 H 15.788060 7.374113 -20.775376 0
M  V30 101 H 9.178208 5.286049 -22.225831 0
M  V30 102 H 9.255450 6.027833 -17.656856 0
M  V30 103 H 8.511634 4.428399 -17.979599 0
M  V30 104 H 6.680998 -3.430471 -16.528620 0
M  V30 105 H 16.331679 7.809550 -18.766097 0
M  V30 END ATOM
M  V30 BEGIN BOND
M  V30 1 1 4 3
M  V30 2 1 10 7
M  V30 3 1 11 6
M  V30 4 1 12 7
M  V30 5 2 14 5
M  V30 6 1 5 18 CFG=3
M  V30 7 1 20 13
M  V30 8 1 20 15
M  V30 9 1 21 11
M  V30 10 1 15 23 CFG=1
M  V30 11 1 23 19
M  V30 12 1 24 15
M  V30 13 1 25 21
M  V30 14 1 26 11
M  V30 15 1 26 17
M  V30 16 1 27 2
M  V30 17 1 29 9
M  V30 18 1 30 27
M  V30 19 1 30 29
M  V30 20 1 31 8
M  V30 21 1 31 25
M  V30 22 1 33 16
M  V30 23 1 33 22
M  V30 24 1 34 2
M  V30 25 1 34 20
M  V30 26 1 34 28
M  V30 27 1 35 9
M  V30 28 1 35 16
M  V30 29 1 36 4
M  V30 30 2 37 32
M  V30 31 1 37 33
M  V30 32 1 38 4
M  V30 33 1 38 31
M  V30 34 1 39 17
M  V30 35 1 40 37
M  V30 36 1 41 5
M  V30 37 1 41 13
M  V30 38 1 42 1
M  V30 39 1 42 6
M  V30 40 1 42 39
M  V30 41 1 43 28
M  V30 42 1 43 36
M  V30 43 1 44 8
M  V30 44 1 44 10
M  V30 45 2 44 21
M  V30 46 1 45 6
M  V30 47 1 45 12
M  V30 48 1 46 8
M  V30 49 1 46 24
M  V30 50 1 46 36
M  V30 51 1 47 13
M  V30 52 1 47 15
M  V30 53 1 48 1
M  V30 54 1 49 1
M  V30 55 1 50 1
M  V30 56 1 51 2
M  V30 57 1 52 2
M  V30 58 1 53 3
M  V30 59 1 4 54 CFG=3
M  V30 60 1 6 55 CFG=3
M  V30 61 1 56 7
M  V30 62 1 57 7
M  V30 63 1 8 58 CFG=3
M  V30 64 1 59 9
M  V30 65 1 60 9
M  V30 66 1 61 10
M  V30 67 1 62 10
M  V30 68 1 11 63 CFG=1
M  V30 69 1 64 12
M  V30 70 1 65 12
M  V30 71 1 13 66 CFG=3
M  V30 72 1 67 16
M  V30 73 1 68 17
M  V30 74 1 69 17
M  V30 75 1 70 18
M  V30 76 1 71 19
M  V30 77 1 20 72 CFG=3
M  V30 78 1 73 22
M  V30 79 1 74 22
M  V30 80 1 75 22
M  V30 81 1 76 26
M  V30 82 1 77 26
M  V30 83 1 78 27
M  V30 84 1 79 27
M  V30 85 1 80 28
M  V30 86 1 81 28
M  V30 87 1 82 29
M  V30 88 1 83 29
M  V30 89 1 84 30
M  V30 90 1 85 30
M  V30 91 1 31 86 CFG=3
M  V30 92 1 33 87 CFG=3
M  V30 93 1 34 88 CFG=3
M  V30 94 1 89 35
M  V30 95 1 90 35
M  V30 96 1 36 91 CFG=3
M  V30 97 1 92 38
M  V30 98 1 93 38
M  V30 99 1 94 39
M  V30 100 1 95 41
M  V30 101 1 42 96 CFG=1
M  V30 102 1 97 43
M  V30 103 1 98 43
M  V30 104 1 99 45
M  V30 105 1 100 45
M  V30 106 1 46 101 CFG=3
M  V30 107 1 102 47
M  V30 108 1 103 47
M  V30 109 1 104 16
M  V30 110 1 105 39
M  V30 END BOND
M  V30 END CTAB
M  END
>  <i_epik_Tot_Q>  (1) 
1

>  <i_epik_Tot_abs_Q>  (1) 
3

>  <i_i_glide_confnum>  (1) 
1732

>  <i_i_glide_lignum>  (1) 
2

>  <i_i_glide_posenum>  (1) 
396

>  <i_i_glide_rotatable_bonds>  (1) 
15

>  <i_lp_mmshare_version>  (1) 
72125

>  <i_m_source_file_index>  (1) 
1

>  <i_f3d_flags>  (1) 
0

>  <num_sample>  (1) 
100

>  <b_lp_Chiralities_Consistent>  (1) 
1

>  <r_epik_Charging_Adjusted_Penalty>  (1) 
0.0032360822409407838

>  <r_epik_Ionization_Penalty>  (1) 
0.0033274947784888795

>  <r_epik_Ionization_Penalty_Charging>  (1) 
0.0032360822409407838

>  <r_epik_Ionization_Penalty_Neutral>  (1) 
9.1412537548095675e-05

>  <r_epik_State_Penalty>  (1) 
-0

>  <r_glide_ring_energy>  (1) 
0

>  <r_i_docking_score>  (1) 
-4.0361699665326825

>  <r_i_glide_ecoul>  (1) 
-8.6262755109596689

>  <r_i_glide_eff_state_penalty>  (1) 
-0

>  <r_i_glide_einternal>  (1) 
8.2541713773953109

>  <r_i_glide_emodel>  (1) 
-47.205578173018772

>  <r_i_glide_emodel_strain>  (1) 
0.20846476539253445

>  <r_i_glide_energy>  (1) 
-41.126086788931644

>  <r_i_glide_erotb>  (1) 
0.30458455882301022

>  <r_i_glide_esite>  (1) 
-0.068837826362483048

>  <r_i_glide_evdw>  (1) 
-32.499811277971972

>  <r_i_glide_gscore>  (1) 
-4.0361699665326825

>  <r_i_glide_gscore_strain>  (1) 
0

>  <r_i_glide_hbond>  (1) 
-0.19479906711577177

>  <r_i_glide_ligand_efficiency>  (1) 
-0.085875956734737927

>  <r_i_glide_ligand_efficiency_ln>  (1) 
-0.83217466724303712

>  <r_i_glide_ligand_efficiency_sa>  (1) 
-0.30991139232118448

>  <r_i_glide_lipo>  (1) 
-0.75650530759703916

>  <r_i_glide_metal>  (1) 
-0

>  <r_i_glide_rewards>  (1) 
-0.40168043373784956

>  <r_lp_Energy>  (1) 
59.080839999999995

>  <r_lp_tautomer_probability>  (1) 
1

>  <s_epik_cmdline>  (1) 
J2VwaWtfcHl0aG9uJywgJy1waHQnLCAnMS4wJywgJy1waCcsICc3LjQnLCAnLXRuJywgJzgnLCAnLW1hJywgJzUwMCcsICctaW1hZScsICc8aW5maWxlLm1hZT4nLCAnLW9tYWUnLCAnPG91dGZpbGUubWFlPic=

>  <s_epik_input>  (1) 
W0NIM11bQ0BASF0xW05IXVtDSDJdW0NIMl1bQ0BIXTJbQ0BASF0xW0NIMl1bQ0gyXVtDSDJdW0NIMl1DMz1DMlNbQ0BASF0oW0NIMl1bQ0BIXTRbT0hdKVtDQEhdM1tDQEhdKE81KVtDQEBIXTRbQ0gyXVtDSDJdW0NASF0oW0NASF0oW0NAXTU2T1tPSF0pW0NASF0oW0NIMl02KVtOSF1bU0BdKD1PKVtPSF0pW0NIMl1bQ0gyXVtDSDJdW0NIMl1bQ0gyXVtDSDJdW05IXVtDQEhdKFtDSDNdKUMoPU8pW09IXQ==

>  <s_glide_docking_method>  (1) 
confgen

>  <s_i_glide_gridfile>  (1) 
gpcr_drd2_6luq_protein_autoprepared_prepared

>  <s_lp_Force_Field>  (1) 
S-OPLS

>  <s_lp_Variant>  (1) 
DiffSBDD_0_num_sample_100-2

>  <s_m_source_file>  (1) 
generated__ligand_DiffSBDD_2026-05-06_prepared.sdf

>  <GenAI_Model>  (1) 
DiffSBDD

>  <Protein>  (1) 
generic_title2

$$$$
DiffSBDD_6_num_sample_100
     RDKit          3D

  0  0  0  0  0  0  0  0  0  0999 V3000
M  V30 BEGIN CTAB
M  V30 COUNTS 64 67 0 0 1
M  V30 BEGIN ATOM
M  V30 1 N 7.320762 3.493145 -15.975995 0
M  V30 2 N 9.553410 5.699520 -9.808393 0
M  V30 3 C 9.830261 7.069721 -9.656683 0
M  V30 4 C 9.749598 7.603333 -12.179982 0
M  V30 5 C 6.649239 6.806200 -19.604343 0
M  V30 6 N 7.644467 4.428520 -12.261202 0
M  V30 7 C 7.833818 4.138849 -17.127783 0
M  V30 8 F 10.284510 8.839027 -8.126092 0
M  V30 9 C 6.466463 1.729699 -12.794471 0
M  V30 10 C 7.220885 2.032821 -15.909641 0
M  V30 11 C 8.081702 5.772285 -11.795971 0 CFG=1
M  V30 12 F 5.790834 7.369183 -18.752941 0
M  V30 13 C 7.905632 3.790151 -13.582930 0 CFG=2
M  V30 14 C 9.249557 5.098923 -11.105973 0 CFG=2
M  V30 15 C 8.378983 3.865557 -11.119125 0
M  V30 16 F 7.177348 7.769283 -20.359195 0
M  V30 17 C 10.181423 5.386341 -18.731172 0
M  V30 18 C 10.174142 4.257588 -18.022027 0
M  V30 19 C 7.705446 5.988099 -18.861064 0
M  V30 20 C 6.889362 4.186609 -14.725393 0 CFG=1
M  V30 21 F 8.442989 4.690744 -8.082565 0
M  V30 22 C 8.979594 3.424773 -17.770972 0
M  V30 23 C 9.004454 6.037791 -19.311311 0
M  V30 24 C 8.458469 6.921756 -12.683559 0
M  V30 25 C 6.442072 5.663347 -14.779712 0
M  V30 26 F 9.034836 7.234682 -7.405338 0
M  V30 27 C 9.905553 7.942892 -10.691630 0
M  V30 28 C 7.791240 2.210636 -13.437038 0 CFG=2
M  V30 29 C 7.272089 5.250135 -17.651208 0
M  V30 30 C 10.053811 7.529067 -8.210297 0
M  V30 31 C 7.998977 1.436815 -14.752208 0
M  V30 32 C 9.626238 4.766020 -8.688726 0
M  V30 33 F 5.946605 6.002397 -20.401996 0
M  V30 34 H 9.834872 8.557105 -12.691656 0
M  V30 35 H 10.625516 7.032278 -12.489133 0
M  V30 36 H 5.615019 1.830842 -13.466712 0
M  V30 37 H 6.526421 0.676413 -12.518387 0
M  V30 38 H 6.225916 2.282838 -11.891656 0
M  V30 39 H 6.175968 1.769305 -15.785069 0
M  V30 40 H 7.501471 1.552304 -16.845955 0
M  V30 41 H 7.356977 6.089085 -11.041288 0
M  V30 42 H 8.917910 4.055138 -13.891453 0
M  V30 43 H 10.124876 4.975457 -11.746292 0
M  V30 44 H 7.690749 3.783279 -10.278046 0
M  V30 45 H 9.005746 2.995881 -11.303915 0
M  V30 46 H 11.139994 5.852373 -18.907031 0
M  V30 47 H 11.110400 3.868315 -17.647106 0
M  V30 48 H 5.951032 3.708518 -14.455234 0
M  V30 49 H 9.349076 2.603678 -17.158438 0
M  V30 50 H 8.646342 2.988914 -18.713677 0
M  V30 51 H 9.191602 6.669964 -20.166285 0
M  V30 52 H 7.645838 7.647642 -12.730041 0
M  V30 53 H 8.634874 6.569232 -13.692595 0
M  V30 54 H 6.182214 6.033940 -13.790325 0
M  V30 55 H 7.186437 6.327096 -15.213212 0
M  V30 56 H 5.513186 5.766822 -15.338708 0
M  V30 57 H 10.122236 8.969270 -10.471486 0
M  V30 58 H 8.597218 1.829772 -12.816626 0
M  V30 59 H 6.392369 5.620735 -17.172613 0
M  V30 60 H 10.949557 7.068001 -7.796651 0
M  V30 61 H 7.703800 0.394629 -14.620687 0
M  V30 62 H 9.034838 1.369319 -15.032795 0
M  V30 63 H 9.897111 3.769304 -9.024866 0
M  V30 64 H 10.366455 5.042835 -7.942269 0
M  V30 END ATOM
M  V30 BEGIN BOND
M  V30 1 1 3 2
M  V30 2 1 7 1
M  V30 3 1 10 1
M  V30 4 1 11 6
M  V30 5 1 12 5
M  V30 6 1 13 6
M  V30 7 1 14 2
M  V30 8 1 14 11
M  V30 9 1 15 6
M  V30 10 1 15 14
M  V30 11 1 16 5
M  V30 12 2 18 17
M  V30 13 1 19 5
M  V30 14 1 20 1
M  V30 15 1 20 13
M  V30 16 1 22 7
M  V30 17 1 22 18
M  V30 18 1 23 17
M  V30 19 2 23 19
M  V30 20 1 24 4
M  V30 21 1 24 11
M  V30 22 1 25 20
M  V30 23 2 27 3
M  V30 24 1 27 4
M  V30 25 1 28 9
M  V30 26 1 28 13
M  V30 27 2 29 7
M  V30 28 1 29 19
M  V30 29 1 30 3
M  V30 30 1 30 8
M  V30 31 1 30 26
M  V30 32 1 31 10
M  V30 33 1 31 28
M  V30 34 1 32 2
M  V30 35 1 32 21
M  V30 36 1 33 5
M  V30 37 1 34 4
M  V30 38 1 35 4
M  V30 39 1 36 9
M  V30 40 1 37 9
M  V30 41 1 38 9
M  V30 42 1 39 10
M  V30 43 1 40 10
M  V30 44 1 11 41 CFG=1
M  V30 45 1 13 42 CFG=3
M  V30 46 1 14 43 CFG=3
M  V30 47 1 44 15
M  V30 48 1 45 15
M  V30 49 1 46 17
M  V30 50 1 47 18
M  V30 51 1 20 48 CFG=1
M  V30 52 1 49 22
M  V30 53 1 50 22
M  V30 54 1 51 23
M  V30 55 1 52 24
M  V30 56 1 53 24
M  V30 57 1 54 25
M  V30 58 1 55 25
M  V30 59 1 56 25
M  V30 60 1 57 27
M  V30 61 1 28 58 CFG=1
M  V30 62 1 59 29
M  V30 63 1 60 30
M  V30 64 1 61 31
M  V30 65 1 62 31
M  V30 66 1 63 32
M  V30 67 1 64 32
M  V30 END BOND
M  V30 END CTAB
M  END
>  <i_epik_Tot_Q>  (1) 
0

>  <i_epik_Tot_abs_Q>  (1) 
0

>  <i_i_glide_confnum>  (1) 
17

>  <i_i_glide_lignum>  (1) 
9

>  <i_i_glide_posenum>  (1) 
36

>  <i_i_glide_rotatable_bonds>  (1) 
5

>  <i_lp_mmshare_version>  (1) 
72125

>  <i_m_source_file_index>  (1) 
7

>  <i_f3d_flags>  (1) 
0

>  <num_sample>  (1) 
100

>  <b_lp_Chiralities_Consistent>  (1) 
1

>  <r_epik_Charging_Adjusted_Penalty>  (1) 
0.092622925798260772

>  <r_epik_Ionization_Penalty>  (1) 
0.092625697702171175

>  <r_epik_Ionization_Penalty_Charging>  (1) 
0.00035560143118834142

>  <r_epik_Ionization_Penalty_Neutral>  (1) 
0.092270096270982829

>  <r_epik_State_Penalty>  (1) 
0.092267324367072426

>  <r_glide_ring_energy>  (1) 
0.067460085264339317

>  <r_i_docking_score>  (1) 
-4.035412277482477

>  <r_i_glide_ecoul>  (1) 
-0.052553042500045777

>  <r_i_glide_eff_state_penalty>  (1) 
0.092267324367072426

>  <r_i_glide_einternal>  (1) 
3.9062995988279638

>  <r_i_glide_emodel>  (1) 
-22.702505942037988

>  <r_i_glide_emodel_strain>  (1) 
2.8728508622165236

>  <r_i_glide_energy>  (1) 
-20.838614939942964

>  <r_i_glide_erotb>  (1) 
0.17904337208641333

>  <r_i_glide_esite>  (1) 
-0.15959908045045756

>  <r_i_glide_evdw>  (1) 
-20.78606189744292

>  <r_i_glide_gscore>  (1) 
-4.1276796018495494

>  <r_i_glide_gscore_strain>  (1) 
0

>  <r_i_glide_hbond>  (1) 
0

>  <r_i_glide_ligand_efficiency>  (1) 
-0.12228522052977203

>  <r_i_glide_ligand_efficiency_ln>  (1) 
-0.89745479626556612

>  <r_i_glide_ligand_efficiency_sa>  (1) 
-0.39223404290035424

>  <r_i_glide_lipo>  (1) 
-1.8707359805359922

>  <r_i_glide_metal>  (1) 
-0

>  <r_i_glide_rewards>  (1) 
-1.2292018617023599

>  <r_lp_Energy>  (1) 
53.872712999999997

>  <s_epik_Chemistry_Notes>  (1) 
This compound has an imine and may undergo hydrolysis.

>  <s_epik_cmdline>  (1) 
J2VwaWtfcHl0aG9uJywgJy1waHQnLCAnMS4wJywgJy1waCcsICc3LjQnLCAnLXRuJywgJzgnLCAnLW1hJywgJzUwMCcsICctaW1hZScsICc8aW5maWxlLm1hZT4nLCAnLW9tYWUnLCAnPG91dGZpbGUubWFlPic=

>  <s_epik_input>  (1) 
W0NIMl0xW0NIXT1bQ0hdW0NIXT1DKEMoRikoRilGKVtDSF09QzFOMltDSDJdW0NIMl1bQ0BIXShbQ0gzXSlbQ0BASF0oW0NASF0yW0NIM10pTjNbQ0gyXVtDQEBIXShbQ0BIXTM0KU4oW0NIMl1GKUMoW0NIXShGKUYpPVtDSF1bQ0gyXVtDSDJdNA==

>  <s_glide_docking_method>  (1) 
confgen

>  <s_i_glide_gridfile>  (1) 
gpcr_drd2_6luq_protein_autoprepared_prepared

>  <s_lp_Force_Field>  (1) 
S-OPLS

>  <s_lp_Variant>  (1) 
DiffSBDD_6_num_sample_100-1

>  <s_m_source_file>  (1) 
generated__ligand_DiffSBDD_2026-05-06_prepared.sdf

>  <GenAI_Model>  (1) 
DiffSBDD

>  <Protein>  (1) 
generic_title2

$$$$
DiffSBDD_65_num_sample_100
     RDKit          3D

  0  0  0  0  0  0  0  0  0  0999 V3000
M  V30 BEGIN CTAB
M  V30 COUNTS 36 36 0 0 1
M  V30 BEGIN ATOM
M  V30 1 C 9.053918 6.046142 -7.653267 0
M  V30 2 C 9.205634 5.531003 -12.749157 0
M  V30 3 C 11.834979 8.883261 -4.480756 0
M  V30 4 C 12.208870 8.172643 -1.726574 0
M  V30 5 S 7.468884 5.469569 -12.218101 0 CHG=1
M  V30 6 C 11.465619 9.408828 -5.734234 0
M  V30 7 C 11.015870 7.151052 -6.546968 0
M  V30 8 C 8.807765 4.773248 -9.886176 0
M  V30 9 C 11.788780 7.483761 -4.263403 0
M  V30 10 C 7.064075 7.237680 -12.302718 0
M  V30 11 S 12.234818 6.793280 -2.691577 0
M  V30 12 C 11.380188 6.626209 -5.294757 0
M  V30 13 N 7.644834 5.369318 -10.512127 0
M  V30 14 N 12.234840 9.130290 -1.091732 0
M  V30 15 C 11.055390 8.543558 -6.767306 0
M  V30 16 C 8.562133 4.773875 -8.363186 0
M  V30 17 C 10.574522 6.217982 -7.650963 0
M  V30 18 H 8.696752 6.000757 -6.623765 0
M  V30 19 H 8.624997 6.945560 -8.085046 0
M  V30 20 H 9.253209 5.768933 -13.811189 0
M  V30 21 H 9.765818 6.290572 -12.205891 0
M  V30 22 H 9.685326 4.562727 -12.603406 0
M  V30 23 H 12.149794 9.551057 -3.696804 0
M  V30 24 H 11.496749 10.475005 -5.903078 0
M  V30 25 H 9.709890 5.334277 -10.123116 0
M  V30 26 H 8.941600 3.769508 -10.291735 0
M  V30 27 H 7.080097 7.579145 -13.337754 0
M  V30 28 H 6.070321 7.422341 -11.892819 0
M  V30 29 H 7.783229 7.829900 -11.735875 0
M  V30 30 H 11.345046 5.563261 -5.125346 0
M  V30 31 H 7.431485 6.246886 -10.037233 0
M  V30 32 H 10.770332 8.946868 -7.727727 0
M  V30 33 H 9.034920 3.915485 -7.891651 0
M  V30 34 H 7.499782 4.635734 -8.156017 0
M  V30 35 H 10.921187 6.595130 -8.613011 0
M  V30 36 H 11.058698 5.255444 -7.500333 0
M  V30 END ATOM
M  V30 BEGIN BOND
M  V30 1 1 5 2
M  V30 2 1 6 3
M  V30 3 2 9 3
M  V30 4 1 10 5
M  V30 5 1 11 4
M  V30 6 1 11 9
M  V30 7 2 12 7
M  V30 8 1 12 9
M  V30 9 1 13 5
M  V30 10 1 13 8
M  V30 11 3 14 4
M  V30 12 2 15 6
M  V30 13 1 15 7
M  V30 14 1 16 1
M  V30 15 1 16 8
M  V30 16 1 17 1
M  V30 17 1 17 7
M  V30 18 1 18 1
M  V30 19 1 19 1
M  V30 20 1 20 2
M  V30 21 1 21 2
M  V30 22 1 22 2
M  V30 23 1 23 3
M  V30 24 1 24 6
M  V30 25 1 25 8
M  V30 26 1 26 8
M  V30 27 1 27 10
M  V30 28 1 28 10
M  V30 29 1 29 10
M  V30 30 1 30 12
M  V30 31 1 31 13
M  V30 32 1 32 15
M  V30 33 1 33 16
M  V30 34 1 34 16
M  V30 35 1 35 17
M  V30 36 1 36 17
M  V30 END BOND
M  V30 END CTAB
M  END
>  <i_epik_Tot_Q>  (1) 
1

>  <i_epik_Tot_abs_Q>  (1) 
1

>  <i_i_glide_confnum>  (1) 
26

>  <i_i_glide_lignum>  (1) 
128

>  <i_i_glide_posenum>  (1) 
176

>  <i_i_glide_rotatable_bonds>  (1) 
7

>  <i_lp_mmshare_version>  (1) 
72125

>  <i_m_source_file_index>  (1) 
66

>  <i_f3d_flags>  (1) 
0

>  <num_sample>  (1) 
100

>  <b_lp_Chiralities_Consistent>  (1) 
1

>  <r_epik_Charging_Adjusted_Penalty>  (1) 
0

>  <r_epik_Ionization_Penalty>  (1) 
2.8679702438893361e-14

>  <r_epik_Ionization_Penalty_Charging>  (1) 
0

>  <r_epik_Ionization_Penalty_Neutral>  (1) 
2.8679702438893361e-14

>  <r_epik_State_Penalty>  (1) 
-0

>  <r_glide_ring_energy>  (1) 
0

>  <r_i_docking_score>  (1) 
-4.034233248351569

>  <r_i_glide_ecoul>  (1) 
-4.0737190229668574

>  <r_i_glide_eff_state_penalty>  (1) 
-0

>  <r_i_glide_einternal>  (1) 
5.7954398203742468

>  <r_i_glide_emodel>  (1) 
-35.903054676261874

>  <r_i_glide_emodel_strain>  (1) 
1.8963432289272468

>  <r_i_glide_energy>  (1) 
-30.421042725193352

>  <r_i_glide_erotb>  (1) 
2.9918565276510027

>  <r_i_glide_esite>  (1) 
-0.018799797314553383

>  <r_i_glide_evdw>  (1) 
-26.347323702226497

>  <r_i_glide_gscore>  (1) 
-4.034233248351569

>  <r_i_glide_gscore_strain>  (1) 
0

>  <r_i_glide_hbond>  (1) 
-0.16

>  <r_i_glide_ligand_efficiency>  (1) 
-0.23730783813832759

>  <r_i_glide_ligand_efficiency_ln>  (1) 
-1.0524416165374815

>  <r_i_glide_ligand_efficiency_sa>  (1) 
-0.61018527552398605

>  <r_i_glide_lipo>  (1) 
-2.3018295656778416

>  <r_i_glide_metal>  (1) 
-0

>  <r_i_glide_rewards>  (1) 
-2.6170363744538228

>  <r_lp_Energy>  (1) 
7.7387159999999993

>  <r_lp_tautomer_probability>  (1) 
1

>  <s_epik_cmdline>  (1) 
J2VwaWtfcHl0aG9uJywgJy1waHQnLCAnMS4wJywgJy1waCcsICc3LjQnLCAnLXRuJywgJzgnLCAnLW1hJywgJzUwMCcsICctaW1hZScsICc8aW5maWxlLm1hZT4nLCAnLW9tYWUnLCAnPG91dGZpbGUubWFlPic=

>  <s_epik_input>  (1) 
W0NIM11bUytdKFtDSDNdKVtOSF1bQ0gyXVtDSDJdW0NIMl1bQ0gyXWMxW2NIXWMoU0MjTilbY0hdW2NIXVtjSF0x

>  <s_glide_docking_method>  (1) 
confgen

>  <s_i_glide_gridfile>  (1) 
gpcr_drd2_6luq_protein_autoprepared_prepared

>  <s_lp_Force_Field>  (1) 
S-OPLS

>  <s_lp_Variant>  (1) 
DiffSBDD_65_num_sample_100-1

>  <s_m_source_file>  (1) 
generated__ligand_DiffSBDD_2026-05-06_prepared.sdf

>  <GenAI_Model>  (1) 
DiffSBDD

>  <Protein>  (1) 
generic_title2

$$$$
DiffSBDD_33_num_sample_100
     RDKit          3D

  0  0  0  0  0  0  0  0  0  0999 V3000
M  V30 BEGIN CTAB
M  V30 COUNTS 81 82 0 0 1
M  V30 BEGIN ATOM
M  V30 1 C 8.440214 6.019167 -12.993679 0
M  V30 2 C 9.960033 2.957425 -18.102538 0
M  V30 3 C 8.140504 4.470259 -16.569212 0
M  V30 4 C 11.754210 9.032514 -5.247655 0
M  V30 5 C 6.046900 5.788692 -12.220102 0
M  V30 6 C 7.162389 5.276742 -15.735996 0
M  V30 7 C 7.684303 3.366132 -17.316239 0
M  V30 8 C 7.203966 5.515781 -13.190407 0
M  V30 9 C 8.751493 6.849876 -11.861238 0
M  V30 10 C 9.944953 7.190108 -11.462064 0
M  V30 11 C 5.932544 4.833056 -10.994057 0
M  V30 12 C 10.344872 7.592349 -9.068472 0
M  V30 13 C 12.232130 6.986641 -3.124604 0
M  V30 14 C 7.181884 4.300690 -10.213940 0
M  V30 15 C 12.043816 9.805016 -6.517171 0
M  V30 16 C 7.669418 0.243941 -17.949220 0 CFG=2
M  V30 17 C 6.882451 4.615403 -14.370838 0
M  V30 18 C 11.835039 8.128324 -2.159174 0
M  V30 19 C 10.806861 7.369310 -10.496763 0
M  V30 20 C 10.414025 4.064602 -17.358751 0
M  V30 21 C 11.277497 7.595224 -5.533132 0 CFG=1
M  V30 22 C 7.917553 5.195539 -9.171675 0
M  V30 23 C 8.841111 -0.478047 -17.267846 0
M  V30 24 O 6.894097 -0.682378 -18.681385 0
M  V30 25 C 9.505804 4.820410 -16.592586 0
M  V30 26 N 9.003062 0.947828 -19.939901 0
M  V30 27 C 11.241797 6.674197 -4.281785 0
M  V30 28 C 8.589358 2.606263 -18.083927 0
M  V30 29 C 8.080148 1.405574 -18.884718 0 CFG=2
M  V30 30 C 9.434772 5.057494 -8.928862 0
M  V30 31 O 12.979761 8.569253 -1.456718 0
M  V30 32 O 10.003226 7.740291 -6.152138 0
M  V30 33 C 10.142772 6.286723 -8.221369 0 CFG=2
M  V30 34 C 9.468985 6.624368 -6.859386 0
M  V30 35 H 9.225978 5.768560 -13.691991 0
M  V30 36 H 10.661447 2.379592 -18.685515 0
M  V30 37 H 12.666246 9.053592 -4.654135 0
M  V30 38 H 10.987175 9.570761 -4.691566 0
M  V30 39 H 6.050114 6.823340 -11.881165 0
M  V30 40 H 5.114837 5.740679 -12.782952 0
M  V30 41 H 7.538215 6.293555 -15.615653 0
M  V30 42 H 6.229992 5.380936 -16.292462 0
M  V30 43 H 6.638582 3.098168 -17.298325 0
M  V30 44 H 7.925066 7.168355 -11.261298 0
M  V30 45 H 5.230947 5.279304 -10.291631 0
M  V30 46 H 5.420557 3.944396 -11.362787 0
M  V30 47 H 9.416548 8.165840 -9.078269 0
M  V30 48 H 11.089929 8.224555 -8.597561 0
M  V30 49 H 13.219718 7.196199 -3.528824 0
M  V30 50 H 12.358705 6.081529 -2.529651 0
M  V30 51 H 6.729265 3.510978 -9.613452 0
M  V30 52 H 7.892998 3.859244 -10.913866 0
M  V30 53 H 12.272752 10.846721 -6.291644 0
M  V30 54 H 11.160989 9.769295 -7.141538 0
M  V30 55 H 12.874387 9.369201 -7.073293 0
M  V30 56 H 7.010466 0.636272 -17.172401 0
M  V30 57 H 7.479890 3.709472 -14.253200 0
M  V30 58 H 5.845818 4.279760 -14.326887 0
M  V30 59 H 11.434866 9.000996 -2.663670 0
M  V30 60 H 11.068078 7.794255 -1.459988 0
M  V30 61 H 11.859703 7.183403 -10.641917 0
M  V30 62 H 11.460022 4.332547 -17.374600 0
M  V30 63 H 11.924492 7.145195 -6.280720 0
M  V30 64 H 7.834846 6.169297 -9.542528 0
M  V30 65 H 7.434654 5.175594 -8.201635 0
M  V30 66 H 9.434826 0.229336 -16.691687 0
M  V30 67 H 9.498389 -0.962768 -17.988897 0
M  V30 68 H 8.485401 -1.244244 -16.579061 0
M  V30 69 H 6.544291 -1.324928 -18.081498 0
M  V30 70 H 9.856679 5.667520 -16.021676 0
M  V30 71 H 9.143577 -0.055097 -19.825986 0
M  V30 72 H 8.555388 1.055823 -20.848283 0
M  V30 73 H 10.234745 6.569289 -3.892241 0
M  V30 74 H 11.474482 5.677304 -4.643905 0
M  V30 75 H 7.171590 1.761239 -19.370881 0
M  V30 76 H 9.596546 4.169239 -8.322755 0
M  V30 77 H 9.899197 4.836341 -9.883716 0
M  V30 78 H 13.041845 9.517250 -1.491665 0
M  V30 79 H 11.145177 5.930531 -7.992727 0
M  V30 80 H 9.465469 5.769298 -6.197558 0
M  V30 81 H 8.423470 6.867611 -7.030699 0
M  V30 END ATOM
M  V30 BEGIN BOND
M  V30 1 1 6 3
M  V30 2 2 7 3
M  V30 3 2 8 1
M  V30 4 1 8 5
M  V30 5 1 9 1
M  V30 6 2 10 9
M  V30 7 1 11 5
M  V30 8 1 14 11
M  V30 9 1 15 4
M  V30 10 1 17 6
M  V30 11 1 17 8
M  V30 12 1 18 13
M  V30 13 2 19 10
M  V30 14 1 19 12
M  V30 15 1 20 2
M  V30 16 1 21 4
M  V30 17 1 22 14
M  V30 18 1 23 16
M  V30 19 1 24 16
M  V30 20 1 25 3
M  V30 21 2 25 20
M  V30 22 1 27 13
M  V30 23 1 27 21
M  V30 24 2 28 2
M  V30 25 1 28 7
M  V30 26 1 29 16
M  V30 27 1 29 26
M  V30 28 1 29 28
M  V30 29 1 30 22
M  V30 30 1 31 18
M  V30 31 1 32 21
M  V30 32 1 33 12
M  V30 33 1 33 30
M  V30 34 1 34 32
M  V30 35 1 34 33
M  V30 36 1 35 1
M  V30 37 1 36 2
M  V30 38 1 37 4
M  V30 39 1 38 4
M  V30 40 1 39 5
M  V30 41 1 40 5
M  V30 42 1 41 6
M  V30 43 1 42 6
M  V30 44 1 43 7
M  V30 45 1 44 9
M  V30 46 1 45 11
M  V30 47 1 46 11
M  V30 48 1 47 12
M  V30 49 1 48 12
M  V30 50 1 49 13
M  V30 51 1 50 13
M  V30 52 1 51 14
M  V30 53 1 52 14
M  V30 54 1 53 15
M  V30 55 1 54 15
M  V30 56 1 55 15
M  V30 57 1 16 56 CFG=1
M  V30 58 1 57 17
M  V30 59 1 58 17
M  V30 60 1 59 18
M  V30 61 1 60 18
M  V30 62 1 61 19
M  V30 63 1 62 20
M  V30 64 1 21 63 CFG=3
M  V30 65 1 64 22
M  V30 66 1 65 22
M  V30 67 1 66 23
M  V30 68 1 67 23
M  V30 69 1 68 23
M  V30 70 1 69 24
M  V30 71 1 70 25
M  V30 72 1 71 26
M  V30 73 1 72 26
M  V30 74 1 73 27
M  V30 75 1 74 27
M  V30 76 1 29 75 CFG=3
M  V30 77 1 76 30
M  V30 78 1 77 30
M  V30 79 1 78 31
M  V30 80 1 33 79 CFG=1
M  V30 81 1 80 34
M  V30 82 1 81 34
M  V30 END BOND
M  V30 END CTAB
M  END
>  <i_epik_Tot_Q>  (1) 
0

>  <i_epik_Tot_abs_Q>  (1) 
0

>  <i_i_glide_confnum>  (1) 
551

>  <i_i_glide_lignum>  (1) 
59

>  <i_i_glide_posenum>  (1) 
287

>  <i_i_glide_rotatable_bonds>  (1) 
14

>  <i_lp_mmshare_version>  (1) 
72125

>  <i_m_source_file_index>  (1) 
34

>  <i_f3d_flags>  (1) 
0

>  <num_sample>  (1) 
100

>  <b_lp_Chiralities_Consistent>  (1) 
1

>  <r_epik_Charging_Adjusted_Penalty>  (1) 
1.2129050419488003

>  <r_epik_Ionization_Penalty>  (1) 
1.2129053275801602

>  <r_epik_Ionization_Penalty_Charging>  (1) 
0

>  <r_epik_Ionization_Penalty_Neutral>  (1) 
1.2129053275801602

>  <r_epik_State_Penalty>  (1) 
1.2129050419488003

>  <r_glide_ring_energy>  (1) 
0

>  <r_i_docking_score>  (1) 
-4.0235178282968516

>  <r_i_glide_ecoul>  (1) 
-3.9052723482295759

>  <r_i_glide_eff_state_penalty>  (1) 
1.2129050419488003

>  <r_i_glide_einternal>  (1) 
10.171063478241749

>  <r_i_glide_emodel>  (1) 
-40.772399135019519

>  <r_i_glide_emodel_strain>  (1) 
3.2399895077669782

>  <r_i_glide_energy>  (1) 
-41.231919065753253

>  <r_i_glide_erotb>  (1) 
1.0070902464162688

>  <r_i_glide_esite>  (1) 
0

>  <r_i_glide_evdw>  (1) 
-37.32664671752368

>  <r_i_glide_gscore>  (1) 
-5.2364228702456517

>  <r_i_glide_gscore_strain>  (1) 
0

>  <r_i_glide_hbond>  (1) 
-0.31312299604417221

>  <r_i_glide_ligand_efficiency>  (1) 
-0.11833875965578976

>  <r_i_glide_ligand_efficiency_ln>  (1) 
-0.88890794412317575

>  <r_i_glide_ligand_efficiency_sa>  (1) 
-0.38337164232943627

>  <r_i_glide_lipo>  (1) 
-2.689138375889792

>  <r_i_glide_metal>  (1) 
-0

>  <r_i_glide_rewards>  (1) 
-0.78912855661733583

>  <r_lp_Energy>  (1) 
8.1818030000000004

>  <s_epik_cmdline>  (1) 
J2VwaWtfcHl0aG9uJywgJy1waHQnLCAnMS4wJywgJy1waCcsICc3LjQnLCAnLXRuJywgJzgnLCAnLW1hJywgJzUwMCcsICctaW1hZScsICc8aW5maWxlLm1hZT4nLCAnLW9tYWUnLCAnPG91dGZpbGUubWFlPic=

>  <s_epik_input>  (1) 
W0NIM11bQ0BIXShbT0hdKVtDQEhdKFtOSDJdKWMoW2NIXVtjSF1bY0hdMSlbY0hdYzFbQ0gyXVtDSDJdQ1wyPVtDSF1cW0NIXT1DPVtDSF1bQ0gyXVtDQEhdKFtDSDJdW0NIMl1bQ0gyXVtDSDJdW0NIMl0yKVtDSDJdT1tDQEBIXShbQ0gyXVtDSDNdKVtDSDJdW0NIMl1bQ0gyXVtPSF0=

>  <s_glide_docking_method>  (1) 
confgen

>  <s_i_glide_gridfile>  (1) 
gpcr_drd2_6luq_protein_autoprepared_prepared

>  <s_lp_Force_Field>  (1) 
S-OPLS

>  <s_lp_Variant>  (1) 
DiffSBDD_33_num_sample_100-2

>  <s_m_source_file>  (1) 
generated__ligand_DiffSBDD_2026-05-06_prepared.sdf

>  <GenAI_Model>  (1) 
DiffSBDD

>  <Protein>  (1) 
generic_title2

$$$$
DiffSBDD_49_num_sample_100
     RDKit          3D

  0  0  0  0  0  0  0  0  0  0999 V3000
M  V30 BEGIN CTAB
M  V30 COUNTS 52 55 0 0 1
M  V30 BEGIN ATOM
M  V30 1 N 8.343692 4.416674 -16.499021 0
M  V30 2 C 12.597510 2.978027 -17.914778 0
M  V30 3 C 12.386221 5.397604 -17.681653 0
M  V30 4 C 5.306713 7.123782 -17.278948 0
M  V30 5 C 7.659330 5.858561 -11.121092 0
M  V30 6 S 8.099913 4.713840 -19.150052 0
M  V30 7 C 11.194673 2.852039 -17.892339 0
M  V30 8 C 7.709601 4.793784 -13.452101 0 CFG=1
M  V30 9 C 8.870678 3.864579 -17.729701 0 CFG=1
M  V30 10 C 6.259642 6.649926 -18.384362 0
M  V30 11 C 7.329434 6.041222 -14.300522 0
M  V30 12 C 7.292721 5.083529 -16.710599 0
M  V30 13 C 9.196242 5.772273 -10.990613 0 CFG=2
M  V30 14 O 9.434848 6.863941 -8.822099 0
M  V30 15 C 6.503836 5.795164 -15.590815 0 CFG=2
M  V30 16 C 9.786042 6.949507 -10.182664 0
M  V30 17 C 10.384953 4.000079 -17.763621 0
M  V30 18 C 9.237213 4.641490 -13.282479 0
M  V30 19 C 13.192872 4.250336 -17.809341 0
M  V30 20 C 6.735297 5.222908 -18.100245 0 CFG=2
M  V30 21 C 7.059900 4.788665 -12.053721 0
M  V30 22 N 6.013877 7.116726 -16.004029 0
M  V30 23 C 9.836817 5.736555 -12.385389 0
M  V30 24 C 10.984139 5.273743 -17.658670 0
M  V30 25 H 5.637497 5.183550 -15.342574 0
M  V30 26 H 13.216863 2.098510 -18.011662 0
M  V30 27 H 12.843104 6.372911 -17.600277 0
M  V30 28 H 4.967865 8.137899 -17.489246 0
M  V30 29 H 4.421104 6.489016 -17.221609 0
M  V30 30 H 7.201119 5.764559 -10.136527 0
M  V30 31 H 7.385859 6.846045 -11.494897 0
M  V30 32 H 10.740265 1.875344 -17.970916 0
M  V30 33 H 7.346118 3.907188 -13.973137 0
M  V30 34 H 8.599631 2.808837 -17.784737 0
M  V30 35 H 7.114716 7.323079 -18.453909 0
M  V30 36 H 5.757569 6.687979 -19.351354 0
M  V30 37 H 6.785461 6.742428 -13.666968 0
M  V30 38 H 8.234762 6.570797 -14.588799 0
M  V30 39 H 9.445221 4.838582 -10.483810 0
M  V30 40 H 8.501914 7.074034 -8.769642 0
M  V30 41 H 9.435921 7.904311 -10.577889 0
M  V30 42 H 10.874105 6.967919 -10.246323 0
M  V30 43 H 9.455986 3.665978 -12.846906 0
M  V30 44 H 9.738308 4.656987 -14.250076 0
M  V30 45 H 14.268087 4.346173 -17.826107 0
M  V30 46 H 7.198702 3.807614 -11.598461 0
M  V30 47 H 5.981810 4.930266 -12.137297 0
M  V30 48 H 9.716232 6.709455 -12.856289 0
M  V30 49 H 10.910331 5.583009 -12.291539 0
M  V30 50 H 10.366559 6.152916 -17.558271 0
M  V30 51 H 5.434555 7.512201 -15.276176 0
M  V30 52 H 5.915076 4.519175 -18.234481 0
M  V30 END ATOM
M  V30 BEGIN BOND
M  V30 1 1 7 2
M  V30 2 1 9 1
M  V30 3 1 9 6
M  V30 4 1 10 4
M  V30 5 1 11 8
M  V30 6 2 12 1
M  V30 7 1 13 5
M  V30 8 1 15 11
M  V30 9 1 15 12
M  V30 10 1 16 13
M  V30 11 1 16 14
M  V30 12 2 17 7
M  V30 13 1 17 9
M  V30 14 1 18 8
M  V30 15 2 19 2
M  V30 16 1 19 3
M  V30 17 1 20 6
M  V30 18 1 20 10
M  V30 19 1 20 12
M  V30 20 1 21 5
M  V30 21 1 21 8
M  V30 22 1 22 4
M  V30 23 1 22 15
M  V30 24 1 23 13
M  V30 25 1 23 18
M  V30 26 2 24 3
M  V30 27 1 24 17
M  V30 28 1 15 25 CFG=1
M  V30 29 1 26 2
M  V30 30 1 27 3
M  V30 31 1 28 4
M  V30 32 1 29 4
M  V30 33 1 30 5
M  V30 34 1 31 5
M  V30 35 1 32 7
M  V30 36 1 8 33 CFG=3
M  V30 37 1 9 34 CFG=3
M  V30 38 1 35 10
M  V30 39 1 36 10
M  V30 40 1 37 11
M  V30 41 1 38 11
M  V30 42 1 13 39 CFG=1
M  V30 43 1 40 14
M  V30 44 1 41 16
M  V30 45 1 42 16
M  V30 46 1 43 18
M  V30 47 1 44 18
M  V30 48 1 45 19
M  V30 49 1 46 21
M  V30 50 1 47 21
M  V30 51 1 48 23
M  V30 52 1 49 23
M  V30 53 1 50 24
M  V30 54 1 51 22
M  V30 55 1 20 52 CFG=1
M  V30 END BOND
M  V30 END CTAB
M  END
>  <i_epik_Tot_Q>  (1) 
0

>  <i_epik_Tot_abs_Q>  (1) 
0

>  <i_i_glide_confnum>  (1) 
52

>  <i_i_glide_lignum>  (1) 
91

>  <i_i_glide_posenum>  (1) 
78

>  <i_i_glide_rotatable_bonds>  (1) 
5

>  <i_lp_mmshare_version>  (1) 
72125

>  <i_m_source_file_index>  (1) 
50

>  <i_f3d_flags>  (1) 
0

>  <num_sample>  (1) 
100

>  <b_lp_Chiralities_Consistent>  (1) 
1

>  <r_epik_Charging_Adjusted_Penalty>  (1) 
0.1447540794995397

>  <r_epik_Ionization_Penalty>  (1) 
0.14481163516182699

>  <r_epik_Ionization_Penalty_Charging>  (1) 
0

>  <r_epik_Ionization_Penalty_Neutral>  (1) 
0.14481163516182699

>  <r_epik_State_Penalty>  (1) 
0.1447540794995397

>  <r_glide_ring_energy>  (1) 
0.00054349889713039754

>  <r_i_docking_score>  (1) 
-4.0225138064174404

>  <r_i_glide_ecoul>  (1) 
-2.287145168583641

>  <r_i_glide_eff_state_penalty>  (1) 
0.1447540794995397

>  <r_i_glide_einternal>  (1) 
2.2664259249895871

>  <r_i_glide_emodel>  (1) 
-32.976190132875196

>  <r_i_glide_emodel_strain>  (1) 
0.31109555539458711

>  <r_i_glide_energy>  (1) 
-26.182984847373582

>  <r_i_glide_erotb>  (1) 
0.63990235469448886

>  <r_i_glide_esite>  (1) 
0

>  <r_i_glide_evdw>  (1) 
-23.89583967878994

>  <r_i_glide_gscore>  (1) 
-4.1672678859169805

>  <r_i_glide_gscore_strain>  (1) 
0

>  <r_i_glide_hbond>  (1) 
-0.16

>  <r_i_glide_ligand_efficiency>  (1) 
-0.16760474193406003

>  <r_i_glide_ligand_efficiency_ln>  (1) 
-0.96277213500680248

>  <r_i_glide_ligand_efficiency_sa>  (1) 
-0.48345573407176429

>  <r_i_glide_lipo>  (1) 
-1.5147173052089971

>  <r_i_glide_metal>  (1) 
-0

>  <r_i_glide_rewards>  (1) 
-1.5945891761754289

>  <r_lp_Energy>  (1) 
26.842413999999998

>  <r_lp_tautomer_probability>  (1) 
0.99998399999999998

>  <s_epik_Chemistry_Notes>  (1) 
This compound has an imine and may undergo hydrolysis. This compound contains an acetal/aminal-like group ( X-CH(R)-Y where X, Y are N, S, or O) that may be acid/base labile, releasing an aldehyde.

>  <s_epik_cmdline>  (1) 
J2VwaWtfcHl0aG9uJywgJy1waHQnLCAnMS4wJywgJy1waCcsICc3LjQnLCAnLXRuJywgJzgnLCAnLW1hJywgJzUwMCcsICctaW1hZScsICc8aW5maWxlLm1hZT4nLCAnLW9tYWUnLCAnPG91dGZpbGUubWFlPic=

>  <s_epik_input>  (1) 
W2NIXTFbY0hdW2NIXVtjSF1bY0hdYzFbQ0BASF0oW05IXTIpU1tDQEBIXShbQ0BIXTIzKVtDSDJdW0NIMl1OPUMzW0NIMl1bQ0BIXTRbQ0gyXVtDSDJdW0NASF0oW0NIMl1bQ0gyXTQpW0NIMl1bT0hd

>  <s_glide_docking_method>  (1) 
confgen

>  <s_i_glide_gridfile>  (1) 
gpcr_drd2_6luq_protein_autoprepared_prepared

>  <s_lp_Force_Field>  (1) 
S-OPLS

>  <s_lp_Variant>  (1) 
DiffSBDD_49_num_sample_100-1

>  <s_m_source_file>  (1) 
generated__ligand_DiffSBDD_2026-05-06_prepared.sdf

>  <GenAI_Model>  (1) 
DiffSBDD

>  <Protein>  (1) 
generic_title2

$$$$
DiffSBDD_64_num_sample_100
     RDKit          3D

  0  0  0  0  0  0  0  0  0  0999 V3000
M  V30 BEGIN CTAB
M  V30 COUNTS 76 80 0 0 1
M  V30 BEGIN ATOM
M  V30 1 N 7.816762 2.385616 -17.120513 0
M  V30 2 C 10.150182 2.461130 -17.539483 0 CFG=1
M  V30 3 C 8.356244 6.106399 -13.705007 0
M  V30 4 C 12.048011 8.562861 -8.679851 0
M  V30 5 C 10.149092 1.898765 -18.962722 0
M  V30 6 C 11.097067 2.850206 -19.694237 0
M  V30 7 C 9.520154 6.751499 -8.301638 0 CFG=1
M  V30 8 O 10.234830 5.540340 -8.265339 0
M  V30 9 O 10.832854 4.644973 -16.690804 0
M  V30 10 C 8.845558 6.012448 -11.201354 0
M  V30 11 C 11.323176 7.882606 -9.848534 0
M  V30 12 C 6.858332 1.571766 -16.376210 0
M  V30 13 F 10.884967 2.854422 -21.010207 0
M  V30 14 C 9.807553 7.407413 -6.934060 0 CFG=2
M  V30 15 O 9.434860 5.069200 -10.684620 0
M  V30 16 C 10.121653 3.992335 -17.724556 0 CFG=1
M  V30 17 O 6.738758 4.169305 -10.857194 0
M  V30 18 C 7.345122 4.245692 -12.146179 0 CFG=2
M  V30 19 C 6.887968 1.845832 -14.857438 0
M  V30 20 C 4.964974 4.442628 -13.022272 0
M  V30 21 C 10.864224 4.234756 -19.063192 0
M  V30 22 C 6.700448 3.347369 -14.558749 0 CFG=1
M  V30 23 C 7.794651 5.731312 -12.322052 0 CFG=2
M  V30 24 C 7.709470 3.817025 -16.805573 0 CFG=2
M  V30 25 C 6.286457 3.660202 -13.092225 0 CFG=1
M  V30 26 C 7.655794 5.622457 -14.974409 0
M  V30 27 O 9.034841 8.569304 -6.793002 0
M  V30 28 O 12.234804 7.650103 -7.617753 0
M  V30 29 C 9.834889 7.631586 -9.569612 0 CFG=1
M  V30 30 O 9.123257 1.938591 -16.691663 0
M  V30 31 C 8.676854 4.518219 -17.784641 0
M  V30 32 C 11.281847 7.703962 -6.563983 0
M  V30 33 N 9.034845 7.303609 -10.794936 0
M  V30 34 F 12.354061 2.468901 -19.458712 0
M  V30 35 C 8.409991 8.448695 -11.491667 0
M  V30 36 C 7.820476 4.128750 -15.266561 0 CFG=1
M  V30 37 H 11.104321 2.178432 -17.091670 0
M  V30 38 H 9.417495 5.857790 -13.763309 0
M  V30 39 H 8.234845 7.185186 -13.775009 0
M  V30 40 H 13.035866 8.874838 -9.018452 0
M  V30 41 H 11.535736 9.466296 -8.351765 0
M  V30 42 H 9.153215 1.959403 -19.402617 0
M  V30 43 H 10.470030 0.857756 -19.009443 0
M  V30 44 H 8.463076 6.485588 -8.312823 0
M  V30 45 H 10.050431 5.094824 -9.089335 0
M  V30 46 H 10.517473 4.333117 -15.855074 0
M  V30 47 H 11.836258 6.969302 -10.136526 0
M  V30 48 H 11.396060 8.560194 -10.691672 0
M  V30 49 H 5.861664 1.769114 -16.770217 0
M  V30 50 H 7.057625 0.518512 -16.573555 0
M  V30 51 H 9.419277 6.735764 -6.165663 0
M  V30 52 H 6.096962 4.857509 -10.768909 0
M  V30 53 H 8.201820 3.569687 -12.177663 0
M  V30 54 H 6.097820 1.257463 -14.390362 0
M  V30 55 H 7.825147 1.492571 -14.423812 0
M  V30 56 H 5.034717 5.420961 -13.495769 0
M  V30 57 H 4.157159 3.885303 -13.491679 0
M  V30 58 H 4.634847 4.593715 -11.997112 0
M  V30 59 H 10.274590 4.864945 -19.730291 0
M  V30 60 H 11.814830 4.752890 -18.924576 0
M  V30 61 H 5.834860 3.698780 -15.091668 0
M  V30 62 H 6.895004 6.317612 -12.146001 0
M  V30 63 H 6.712529 4.126054 -17.120823 0
M  V30 64 H 6.037725 2.690050 -12.658485 0
M  V30 65 H 8.123067 6.169300 -15.780628 0
M  V30 66 H 6.611446 5.931452 -14.998095 0
M  V30 67 H 8.132111 8.323408 -6.963973 0
M  V30 68 H 9.461531 8.609317 -9.272428 0
M  V30 69 H 8.656165 5.604245 -17.716088 0
M  V30 70 H 8.284318 4.314607 -18.782473 0
M  V30 71 H 11.597316 6.946120 -5.846717 0
M  V30 72 H 11.374613 8.652979 -6.034868 0
M  V30 73 H 9.019365 8.734199 -12.346734 0
M  V30 74 H 7.386451 8.291098 -11.823323 0
M  V30 75 H 8.342562 9.333810 -10.859171 0
M  V30 76 H 8.789456 3.797819 -14.897234 0
M  V30 END ATOM
M  V30 BEGIN BOND
M  V30 1 1 5 2
M  V30 2 1 6 5
M  V30 3 1 8 7
M  V30 4 1 11 4
M  V30 5 1 12 1
M  V30 6 1 13 6
M  V30 7 1 14 7
M  V30 8 2 15 10
M  V30 9 1 16 2
M  V30 10 1 16 9 CFG=1
M  V30 11 1 18 17
M  V30 12 1 19 12
M  V30 13 1 21 6
M  V30 14 1 21 16
M  V30 15 1 22 19
M  V30 16 1 23 3
M  V30 17 1 23 10
M  V30 18 1 23 18
M  V30 19 1 24 1
M  V30 20 1 25 18
M  V30 21 1 25 20
M  V30 22 1 25 22
M  V30 23 1 26 3
M  V30 24 1 27 14
M  V30 25 1 28 4
M  V30 26 1 29 7
M  V30 27 1 29 11
M  V30 28 1 30 1
M  V30 29 1 30 2
M  V30 30 1 31 16
M  V30 31 1 31 24
M  V30 32 1 32 14
M  V30 33 1 32 28
M  V30 34 1 33 10
M  V30 35 1 33 29
M  V30 36 1 34 6
M  V30 37 1 35 33
M  V30 38 1 36 22
M  V30 39 1 36 24
M  V30 40 1 36 26
M  V30 41 1 2 37 CFG=1
M  V30 42 1 38 3
M  V30 43 1 39 3
M  V30 44 1 40 4
M  V30 45 1 41 4
M  V30 46 1 42 5
M  V30 47 1 43 5
M  V30 48 1 7 44 CFG=1
M  V30 49 1 45 8
M  V30 50 1 46 9
M  V30 51 1 47 11
M  V30 52 1 48 11
M  V30 53 1 49 12
M  V30 54 1 50 12
M  V30 55 1 14 51 CFG=1
M  V30 56 1 52 17
M  V30 57 1 18 53 CFG=1
M  V30 58 1 54 19
M  V30 59 1 55 19
M  V30 60 1 56 20
M  V30 61 1 57 20
M  V30 62 1 58 20
M  V30 63 1 59 21
M  V30 64 1 60 21
M  V30 65 1 22 61 CFG=3
M  V30 66 1 23 62 CFG=1
M  V30 67 1 24 63 CFG=3
M  V30 68 1 25 64 CFG=1
M  V30 69 1 65 26
M  V30 70 1 66 26
M  V30 71 1 67 27
M  V30 72 1 29 68 CFG=1
M  V30 73 1 69 31
M  V30 74 1 70 31
M  V30 75 1 71 32
M  V30 76 1 72 32
M  V30 77 1 73 35
M  V30 78 1 74 35
M  V30 79 1 75 35
M  V30 80 1 36 76 CFG=1
M  V30 END BOND
M  V30 END CTAB
M  END
>  <i_epik_Tot_Q>  (1) 
0

>  <i_epik_Tot_abs_Q>  (1) 
0

>  <i_i_glide_confnum>  (1) 
6

>  <i_i_glide_lignum>  (1) 
127

>  <i_i_glide_posenum>  (1) 
381

>  <i_i_glide_rotatable_bonds>  (1) 
7

>  <i_lp_mmshare_version>  (1) 
72125

>  <i_m_source_file_index>  (1) 
65

>  <i_f3d_flags>  (1) 
0

>  <num_sample>  (1) 
100

>  <b_lp_Chiralities_Consistent>  (1) 
1

>  <r_epik_Charging_Adjusted_Penalty>  (1) 
0.0074276549920260261

>  <r_epik_Ionization_Penalty>  (1) 
0.0074281302473017232

>  <r_epik_Ionization_Penalty_Charging>  (1) 
0

>  <r_epik_Ionization_Penalty_Neutral>  (1) 
0.0074281302473017232

>  <r_epik_State_Penalty>  (1) 
0.0074276549920260261

>  <r_glide_ring_energy>  (1) 
0.2111205224247624

>  <r_i_docking_score>  (1) 
-4.0158501084990288

>  <r_i_glide_ecoul>  (1) 
-3.1130011479469353

>  <r_i_glide_eff_state_penalty>  (1) 
0.0074276549920260261

>  <r_i_glide_einternal>  (1) 
40.340505812593477

>  <r_i_glide_emodel>  (1) 
-7.5395305377228041

>  <r_i_glide_emodel_strain>  (1) 
4.8397550959038824

>  <r_i_glide_energy>  (1) 
-28.804266604026871

>  <r_i_glide_erotb>  (1) 
0.22910757355035372

>  <r_i_glide_esite>  (1) 
-0.15578892586012769

>  <r_i_glide_evdw>  (1) 
-25.691265456079936

>  <r_i_glide_gscore>  (1) 
-4.0232777634910546

>  <r_i_glide_gscore_strain>  (1) 
0.20993877397597061

>  <r_i_glide_hbond>  (1) 
-0.099428659857028243

>  <r_i_glide_ligand_efficiency>  (1) 
-0.1115513919027508

>  <r_i_glide_ligand_efficiency_ln>  (1) 
-0.87614999794278325

>  <r_i_glide_ligand_efficiency_sa>  (1) 
-0.36833458057581636

>  <r_i_glide_lipo>  (1) 
-1.9330518468050046

>  <r_i_glide_metal>  (1) 
-0

>  <r_i_glide_rewards>  (1) 
-0.52254123349918113

>  <r_lp_Energy>  (1) 
55.332492999999999

>  <s_epik_Chemistry_Notes>  (1) 
This compound has a N-S or N-O group and may undergo hydrolysis at high or low pH.

>  <s_epik_cmdline>  (1) 
J2VwaWtfcHl0aG9uJywgJy1waHQnLCAnMS4wJywgJy1waCcsICc3LjQnLCAnLXRuJywgJzgnLCAnLW1hJywgJzUwMCcsICctaW1hZScsICc8aW5maWxlLm1hZT4nLCAnLW9tYWUnLCAnPG91dGZpbGUubWFlPic=

>  <s_epik_input>  (1) 
RkMoRikoW0NIMl0xKVtDSDJdW0NAQEhdKFtDQEBdMTJbT0hdKU9OM1tDQEhdKFtDSDJdMilbQ0BASF00W0NAQEhdKFtDSDJdW0NIMl0zKVtDQEhdKFtDSDNdKVtDQEhdKFtPSF0pW0NASF0oW0NIMl1bQ0gyXTQpQyg9TylOKFtDSDNdKVtDQEBIXTVbQ0gyXVtDSDJdT1tDSDJdW0NAQEhdKFtPSF0pW0NAQEhdNVtPSF0=

>  <s_glide_docking_method>  (1) 
confgen

>  <s_i_glide_gridfile>  (1) 
gpcr_drd2_6luq_protein_autoprepared_prepared

>  <s_lp_Force_Field>  (1) 
S-OPLS

>  <s_lp_Variant>  (1) 
DiffSBDD_64_num_sample_100-1

>  <s_m_source_file>  (1) 
generated__ligand_DiffSBDD_2026-05-06_prepared.sdf

>  <GenAI_Model>  (1) 
DiffSBDD

>  <Protein>  (1) 
generic_title2

$$$$
DiffSBDD_25_num_sample_100
     RDKit          3D

  0  0  0  0  0  0  0  0  0  0999 V3000
M  V30 BEGIN CTAB
M  V30 COUNTS 66 69 0 0 1
M  V30 BEGIN ATOM
M  V30 1 C 8.687428 -1.093891 -16.778966 0
M  V30 2 C 11.256526 8.455216 -9.706470 0
M  V30 3 C 9.050376 7.818628 -10.749884 0
M  V30 4 C 8.467790 5.409296 -14.988184 0 CFG=2
M  V30 5 C 11.405568 6.562005 -6.507138 0
M  V30 6 O 10.699091 8.851938 -6.706449 0
M  V30 7 C 9.583169 8.008124 -6.787714 0 CFG=1
M  V30 8 C 11.834764 8.033858 -6.558354 0 CFG=2
M  V30 9 F 11.632044 8.169377 -10.957401 0
M  V30 10 C 12.841705 8.356121 -7.650909 0
M  V30 11 C 7.034528 2.135091 -14.869893 0
M  V30 12 C 9.106403 7.934787 -8.231677 0
M  V30 13 F 11.087020 9.759704 -9.491712 0
M  V30 14 C 6.949987 5.629440 -12.855446 0 CFG=1
M  V30 15 N 7.479329 0.887290 -15.257680 0
M  V30 16 C 9.962721 7.631661 -9.485296 0 CFG=2
M  V30 17 O 8.728648 4.017443 -12.968856 0
M  V30 18 C 7.143607 5.083787 -17.198800 0
M  V30 19 C 7.175440 6.303299 -11.492160 0
M  V30 20 F 6.316282 6.518558 -13.625785 0
M  V30 21 C 7.386759 4.580856 -15.760545 0 CFG=1
M  V30 22 C 9.224905 6.305709 -12.664456 0
M  V30 23 C 8.235368 1.163813 -16.324848 0
M  V30 24 C 9.922245 5.209471 -15.499315 0
M  V30 25 C 9.955366 6.677362 -6.143976 0
M  V30 26 O 8.347458 2.490764 -16.633406 0
M  V30 27 O 10.139155 5.706112 -16.801285 0
M  V30 28 C 12.557220 8.017458 -9.098198 0
M  V30 29 N 8.634938 6.515446 -11.341379 0 CFG=1 CHG=1
M  V30 30 C 7.544692 3.091417 -15.702152 0
M  V30 31 O 8.885525 0.277046 -17.103388 0
M  V30 32 C 8.348854 5.304047 -13.422990 0 CFG=1
M  V30 33 H 9.249316 -1.721856 -17.470236 0
M  V30 34 H 9.035008 -1.324507 -15.771802 0
M  V30 35 H 7.635212 -1.370168 -16.862716 0
M  V30 36 H 9.578293 8.405855 -11.495137 0
M  V30 37 H 8.235020 8.537588 -10.691674 0
M  V30 38 H 8.231659 6.453091 -15.195629 0
M  V30 39 H 11.481168 6.079770 -7.479156 0
M  V30 40 H 11.975052 5.969612 -5.790279 0
M  V30 41 H 8.776550 8.457897 -6.207750 0
M  V30 42 H 12.234670 8.337844 -5.589320 0
M  V30 43 H 13.719749 7.785359 -7.491858 0
M  V30 44 H 13.170437 9.369286 -7.533686 0
M  V30 45 H 6.367863 2.248922 -14.027656 0
M  V30 46 H 8.634854 8.897541 -8.412126 0
M  V30 47 H 8.396904 7.109309 -8.186212 0
M  V30 48 H 6.300126 4.754645 -12.792855 0
M  V30 49 H 10.267671 6.586481 -9.432557 0
M  V30 50 H 9.620787 3.834031 -13.233407 0
M  V30 51 H 6.247027 4.638407 -17.628446 0
M  V30 52 H 7.006366 6.165022 -17.222701 0
M  V30 53 H 7.963007 4.835362 -17.871325 0
M  V30 54 H 6.807884 5.694893 -10.666033 0
M  V30 55 H 6.619751 7.242504 -11.491746 0
M  V30 56 H 6.432660 4.780326 -15.277535 0
M  V30 57 H 10.285523 6.056927 -12.619289 0
M  V30 58 H 9.102319 7.286057 -13.091648 0
M  V30 59 H 10.205141 4.169355 -15.492407 0
M  V30 60 H 10.636154 5.726106 -14.862240 0
M  V30 61 H 9.847953 6.744571 -5.061697 0
M  V30 62 H 9.352550 5.837674 -6.490836 0
M  V30 63 H 9.652808 5.174952 -17.413125 0
M  V30 64 H 12.634862 6.969336 -9.337770 0
M  V30 65 H 13.379568 8.481457 -9.651628 0
M  V30 66 H 8.964202 5.769219 -10.746841 0
M  V30 END ATOM
M  V30 BEGIN BOND
M  V30 1 1 7 6
M  V30 2 1 8 5
M  V30 3 1 8 6
M  V30 4 1 9 2
M  V30 5 1 10 8
M  V30 6 1 12 7
M  V30 7 1 13 2
M  V30 8 1 15 11
M  V30 9 1 16 2
M  V30 10 1 16 3
M  V30 11 1 16 12
M  V30 12 1 19 14
M  V30 13 1 20 14
M  V30 14 1 21 4
M  V30 15 1 21 18
M  V30 16 2 23 15
M  V30 17 1 24 4
M  V30 18 1 25 5
M  V30 19 1 25 7
M  V30 20 1 26 23
M  V30 21 1 27 24
M  V30 22 1 28 2
M  V30 23 1 28 10
M  V30 24 1 29 3
M  V30 25 1 29 19
M  V30 26 1 29 22
M  V30 27 2 30 11
M  V30 28 1 30 21
M  V30 29 1 30 26
M  V30 30 1 31 1
M  V30 31 1 31 23
M  V30 32 1 32 4
M  V30 33 1 32 14
M  V30 34 1 32 17 CFG=1
M  V30 35 1 32 22
M  V30 36 1 33 1
M  V30 37 1 34 1
M  V30 38 1 35 1
M  V30 39 1 36 3
M  V30 40 1 37 3
M  V30 41 1 4 38 CFG=1
M  V30 42 1 39 5
M  V30 43 1 40 5
M  V30 44 1 7 41 CFG=1
M  V30 45 1 8 42 CFG=1
M  V30 46 1 43 10
M  V30 47 1 44 10
M  V30 48 1 45 11
M  V30 49 1 46 12
M  V30 50 1 47 12
M  V30 51 1 14 48 CFG=1
M  V30 52 1 16 49 CFG=1
M  V30 53 1 50 17
M  V30 54 1 51 18
M  V30 55 1 52 18
M  V30 56 1 53 18
M  V30 57 1 54 19
M  V30 58 1 55 19
M  V30 59 1 21 56 CFG=1
M  V30 60 1 57 22
M  V30 61 1 58 22
M  V30 62 1 59 24
M  V30 63 1 60 24
M  V30 64 1 61 25
M  V30 65 1 62 25
M  V30 66 1 63 27
M  V30 67 1 64 28
M  V30 68 1 65 28
M  V30 69 1 29 66 CFG=1
M  V30 END BOND
M  V30 END CTAB
M  END
>  <i_epik_Tot_Q>  (1) 
1

>  <i_epik_Tot_abs_Q>  (1) 
1

>  <i_i_glide_confnum>  (1) 
121

>  <i_i_glide_lignum>  (1) 
39

>  <i_i_glide_posenum>  (1) 
397

>  <i_i_glide_rotatable_bonds>  (1) 
9

>  <i_lp_mmshare_version>  (1) 
72125

>  <i_m_source_file_index>  (1) 
26

>  <i_f3d_flags>  (1) 
0

>  <num_sample>  (1) 
100

>  <b_lp_Chiralities_Consistent>  (1) 
1

>  <r_epik_Charging_Adjusted_Penalty>  (1) 
0.21543991348680042

>  <r_epik_Ionization_Penalty>  (1) 
0.10772808098718631

>  <r_epik_Ionization_Penalty_Charging>  (1) 
0.10771995674340021

>  <r_epik_Ionization_Penalty_Neutral>  (1) 
8.124243786105112e-06

>  <r_epik_State_Penalty>  (1) 
0.10771995674340022

>  <r_glide_ring_energy>  (1) 
0

>  <r_i_docking_score>  (1) 
-4.011919775118443

>  <r_i_glide_ecoul>  (1) 
-6.0220251470444381

>  <r_i_glide_eff_state_penalty>  (1) 
0.10771995674340022

>  <r_i_glide_einternal>  (1) 
7.4166043564175936

>  <r_i_glide_emodel>  (1) 
-20.239329028409749

>  <r_i_glide_emodel_strain>  (1) 
1.4952946446495901

>  <r_i_glide_energy>  (1) 
-14.97087357442075

>  <r_i_glide_erotb>  (1) 
0.56277696399540145

>  <r_i_glide_esite>  (1) 
-0.085548242421081319

>  <r_i_glide_evdw>  (1) 
-8.948848427376312

>  <r_i_glide_gscore>  (1) 
-4.1196397318618434

>  <r_i_glide_gscore_strain>  (1) 
0

>  <r_i_glide_hbond>  (1) 
0

>  <r_i_glide_ligand_efficiency>  (1) 
-0.12537249297245134

>  <r_i_glide_ligand_efficiency_ln>  (1) 
-0.89837819845173317

>  <r_i_glide_ligand_efficiency_sa>  (1) 
-0.39803285446469

>  <r_i_glide_lipo>  (1) 
-1.8130060549696903

>  <r_i_glide_metal>  (1) 
-0

>  <r_i_glide_rewards>  (1) 
-1.4331162050409916

>  <r_lp_Energy>  (1) 
39.383341000000001

>  <s_epik_cmdline>  (1) 
J2VwaWtfcHl0aG9uJywgJy1waHQnLCAnMS4wJywgJy1waCcsICc3LjQnLCAnLXRuJywgJzgnLCAnLW1hJywgJzUwMCcsICctaW1hZScsICc8aW5maWxlLm1hZT4nLCAnLW9tYWUnLCAnPG91dGZpbGUubWFlPic=

>  <s_epik_input>  (1) 
W0NIM11PYzFuW2NIXWMobzEpW0NASF0oW0NIM10pW0NASF0oW0NIMl1bT0hdKVtDQF0yKFtPSF0pW0NASF0oRilbQ0gyXU4oW0NIMl0yKVtDSDJdW0NASF0oW0NIMl0zKUMoRikoRilbQ0gyXVtDSDJdW0NASF0oW0NIMl1bQ0gyXTQpT1tDQEBIXTM0

>  <s_glide_docking_method>  (1) 
confgen

>  <s_i_glide_gridfile>  (1) 
gpcr_drd2_6luq_protein_autoprepared_prepared

>  <s_lp_Force_Field>  (1) 
S-OPLS

>  <s_lp_Variant>  (1) 
DiffSBDD_25_num_sample_100-2

>  <s_m_source_file>  (1) 
generated__ligand_DiffSBDD_2026-05-06_prepared.sdf

>  <GenAI_Model>  (1) 
DiffSBDD

>  <Protein>  (1) 
generic_title2

$$$$
DiffSBDD_18_num_sample_100
     RDKit          3D

  0  0  0  0  0  0  0  0  0  0999 V3000
M  V30 BEGIN CTAB
M  V30 COUNTS 53 56 0 0 1
M  V30 BEGIN ATOM
M  V30 1 C 11.224262 4.408829 -18.756817 0
M  V30 2 O 16.458787 6.169293 -17.105796 0 CHG=-1
M  V30 3 O 5.021952 7.201641 -20.398475 0
M  V30 4 C 14.008491 2.548887 -17.298474 0
M  V30 5 C 6.468754 5.347176 -18.360450 0 CFG=2
M  V30 6 O 12.694708 2.551709 -18.036809 0
M  V30 7 C 4.549046 8.531168 -20.576867 0
M  V30 8 C 5.627752 8.164977 -15.945299 0
M  V30 9 S 7.822408 4.149955 -18.423880 0
M  V30 10 C 8.291098 5.247703 -19.779502 0 CFG=2
M  V30 11 C 6.722261 5.577449 -15.936582 0
M  V30 12 C 16.436402 5.144357 -16.392869 0
M  V30 13 S 9.578792 6.527639 -19.491593 0
M  V30 14 C 6.796543 5.698433 -19.852519 0 CFG=2
M  V30 15 C 5.521580 7.218225 -17.153081 0
M  V30 16 O 17.434834 4.569304 -15.908646 0
M  V30 17 C 13.248230 6.104150 -17.748914 0
M  V30 18 N 14.360764 3.976334 -17.244320 0
M  V30 19 C 13.353988 4.703911 -17.725976 0
M  V30 20 C 11.056834 5.819490 -18.811025 0
M  V30 21 O 5.719198 7.403323 -14.747295 0
M  V30 22 C 6.908644 7.172479 -21.928654 0
M  V30 23 C 15.064031 4.534884 -16.084852 0
M  V30 24 C 12.405214 3.900766 -18.192008 0
M  V30 25 C 12.079239 6.673129 -18.304989 0
M  V30 26 C 6.842082 6.536256 -14.744129 0
M  V30 27 N 6.634739 6.272571 -17.228016 0
M  V30 28 C 6.437796 7.058076 -20.466562 0 CFG=1
M  V30 29 H 10.463840 3.742657 -19.129321 0
M  V30 30 H 13.882684 2.148671 -16.291666 0
M  V30 31 H 14.773574 2.004906 -17.852646 0
M  V30 32 H 5.513619 4.825119 -18.291674 0
M  V30 33 H 3.478624 8.569274 -20.375433 0
M  V30 34 H 5.035385 9.227003 -19.891982 0
M  V30 35 H 4.701000 8.881439 -21.597226 0
M  V30 36 H 6.496767 8.815958 -16.038426 0
M  V30 37 H 4.748903 8.806335 -15.891672 0
M  V30 38 H 8.566488 4.658869 -20.655099 0
M  V30 39 H 5.834838 4.969304 -15.785771 0
M  V30 40 H 7.579081 4.905644 -15.908077 0
M  V30 41 H 6.285362 4.940172 -20.450710 0
M  V30 42 H 5.473379 7.820617 -18.054625 0
M  V30 43 H 4.577384 6.674468 -17.094401 0
M  V30 44 H 14.034861 6.730976 -17.357649 0
M  V30 45 H 7.982094 7.006222 -22.014743 0
M  V30 46 H 6.407072 6.441121 -22.562785 0
M  V30 47 H 6.712880 8.161345 -22.341483 0
M  V30 48 H 14.459493 5.279745 -15.565824 0
M  V30 49 H 15.209571 3.734406 -15.360459 0
M  V30 50 H 11.961308 7.746479 -18.341043 0
M  V30 51 H 7.767952 7.110034 -14.785349 0
M  V30 52 H 6.855643 5.977427 -13.808265 0
M  V30 53 H 6.915835 7.849124 -19.890414 0
M  V30 END ATOM
M  V30 BEGIN BOND
M  V30 1 1 6 4
M  V30 2 1 7 3
M  V30 3 1 9 5
M  V30 4 1 10 9
M  V30 5 1 12 2
M  V30 6 1 13 10
M  V30 7 1 14 5
M  V30 8 1 14 10
M  V30 9 1 15 8
M  V30 10 2 16 12
M  V30 11 1 18 4
M  V30 12 1 19 17
M  V30 13 1 19 18
M  V30 14 2 20 1
M  V30 15 1 20 13
M  V30 16 1 21 8
M  V30 17 1 23 12
M  V30 18 1 23 18
M  V30 19 1 24 1
M  V30 20 1 24 6
M  V30 21 2 24 19
M  V30 22 2 25 17
M  V30 23 1 25 20
M  V30 24 1 26 11
M  V30 25 1 26 21
M  V30 26 1 27 5
M  V30 27 1 27 11
M  V30 28 1 27 15
M  V30 29 1 28 3
M  V30 30 1 28 14
M  V30 31 1 28 22
M  V30 32 1 29 1
M  V30 33 1 30 4
M  V30 34 1 31 4
M  V30 35 1 5 32 CFG=3
M  V30 36 1 33 7
M  V30 37 1 34 7
M  V30 38 1 35 7
M  V30 39 1 36 8
M  V30 40 1 37 8
M  V30 41 1 10 38 CFG=3
M  V30 42 1 39 11
M  V30 43 1 40 11
M  V30 44 1 14 41 CFG=3
M  V30 45 1 42 15
M  V30 46 1 43 15
M  V30 47 1 44 17
M  V30 48 1 45 22
M  V30 49 1 46 22
M  V30 50 1 47 22
M  V30 51 1 48 23
M  V30 52 1 49 23
M  V30 53 1 50 25
M  V30 54 1 51 26
M  V30 55 1 52 26
M  V30 56 1 28 53 CFG=1
M  V30 END BOND
M  V30 END CTAB
M  END
>  <i_epik_Tot_Q>  (1) 
-1

>  <i_epik_Tot_abs_Q>  (1) 
1

>  <i_i_glide_confnum>  (1) 
159

>  <i_i_glide_lignum>  (1) 
30

>  <i_i_glide_posenum>  (1) 
165

>  <i_i_glide_rotatable_bonds>  (1) 
7

>  <i_lp_mmshare_version>  (1) 
72125

>  <i_m_source_file_index>  (1) 
19

>  <i_f3d_flags>  (1) 
0

>  <num_sample>  (1) 
100

>  <b_lp_Chiralities_Consistent>  (1) 
1

>  <r_epik_Charging_Adjusted_Penalty>  (1) 
0.00040573195342964225

>  <r_epik_Ionization_Penalty>  (1) 
0.00047194480807020967

>  <r_epik_Ionization_Penalty_Charging>  (1) 
0.00040573195342964225

>  <r_epik_Ionization_Penalty_Neutral>  (1) 
6.6212854640567391e-05

>  <r_epik_State_Penalty>  (1) 
-0

>  <r_glide_ring_energy>  (1) 
0.0045149093831275133

>  <r_i_docking_score>  (1) 
-3.996243910701339

>  <r_i_glide_ecoul>  (1) 
-2.9108976712317793

>  <r_i_glide_eff_state_penalty>  (1) 
-0

>  <r_i_glide_einternal>  (1) 
0.84550118305826061

>  <r_i_glide_emodel>  (1) 
-35.737402867262169

>  <r_i_glide_emodel_strain>  (1) 
0.26426939085290257

>  <r_i_glide_energy>  (1) 
-29.93195472468685

>  <r_i_glide_erotb>  (1) 
0.54773737594122907

>  <r_i_glide_esite>  (1) 
-0.0063450164126251573

>  <r_i_glide_evdw>  (1) 
-27.02105705345507

>  <r_i_glide_gscore>  (1) 
-3.996243910701339

>  <r_i_glide_gscore_strain>  (1) 
0

>  <r_i_glide_hbond>  (1) 
-0.13702880976262261

>  <r_i_glide_ligand_efficiency>  (1) 
-0.14272299681076211

>  <r_i_glide_ligand_efficiency_ln>  (1) 
-0.92245042940960364

>  <r_i_glide_ligand_efficiency_sa>  (1) 
-0.43339107814860561

>  <r_i_glide_lipo>  (1) 
-1.7590643257511838

>  <r_i_glide_metal>  (1) 
-0

>  <r_i_glide_rewards>  (1) 
-0.85385563135861597

>  <r_lp_Energy>  (1) 
43.419910999999999

>  <r_lp_tautomer_probability>  (1) 
1

>  <s_epik_Chemistry_Notes>  (1) 
This compound contains an acetal/aminal-like group ( X-CH(R)-Y where X, Y are N, S, or O) that may be acid/base labile, releasing an aldehyde.

>  <s_epik_cmdline>  (1) 
J2VwaWtfcHl0aG9uJywgJy1waHQnLCAnMS4wJywgJy1waCcsICc3LjQnLCAnLXRuJywgJzgnLCAnLW1hJywgJzUwMCcsICctaW1hZScsICc8aW5maWxlLm1hZT4nLCAnLW9tYWUnLCAnPG91dGZpbGUubWFlPic=

>  <s_epik_input>  (1) 
W09IXUMoPU8pW0NIMl1OMVtDSDJdT2MoYzEyKVtjSF1jKFtjSF1bY0hdMilTW0NASF0oW0NAQEhdM1tDQEBIXShbQ0gzXSlPW0NIM10pU1tDQEhdM040W0NIMl1bQ0gyXU9bQ0gyXVtDSDJdNA==

>  <s_glide_docking_method>  (1) 
confgen

>  <s_i_glide_gridfile>  (1) 
gpcr_drd2_6luq_protein_autoprepared_prepared

>  <s_lp_Force_Field>  (1) 
S-OPLS

>  <s_lp_Variant>  (1) 
DiffSBDD_18_num_sample_100-1

>  <s_m_source_file>  (1) 
generated__ligand_DiffSBDD_2026-05-06_prepared.sdf

>  <GenAI_Model>  (1) 
DiffSBDD

>  <Protein>  (1) 
generic_title2

$$$$
DiffSBDD_49_num_sample_100
     RDKit          3D

  0  0  0  0  0  0  0  0  0  0999 V3000
M  V30 BEGIN CTAB
M  V30 COUNTS 52 55 0 0 1
M  V30 BEGIN ATOM
M  V30 1 N 7.745657 2.250627 -16.639303 0
M  V30 2 C 7.778483 4.198180 -20.831657 0
M  V30 3 C 5.446849 3.919272 -20.172647 0
M  V30 4 C 5.844698 -0.043281 -13.798309 0
M  V30 5 C 8.570283 6.061050 -12.845276 0
M  V30 6 S 6.510294 0.210555 -17.881703 0
M  V30 7 C 8.169710 3.268799 -19.847254 0
M  V30 8 C 6.954141 4.169625 -13.456110 0 CFG=1
M  V30 9 C 7.625915 1.653537 -17.959692 0 CFG=1
M  V30 10 C 5.565283 -0.209009 -15.302462 0
M  V30 11 C 8.016440 3.098786 -13.828856 0
M  V30 12 C 7.395961 1.417909 -15.749353 0
M  V30 13 C 8.154236 5.986641 -11.363390 0 CFG=2
M  V30 14 O 9.434826 7.832569 -10.422732 0
M  V30 15 C 7.519593 1.680818 -14.237990 0 CFG=2
M  V30 16 C 9.292777 6.427887 -10.421011 0
M  V30 17 C 7.198673 2.660989 -19.023106 0
M  V30 18 C 6.524622 4.127707 -11.968323 0
M  V30 19 C 6.417515 4.522756 -20.994121 0
M  V30 20 C 6.829612 0.080942 -16.122003 0 CFG=2
M  V30 21 C 7.440762 5.597784 -13.783879 0
M  V30 22 N 6.299205 1.313922 -13.514471 0
M  V30 23 C 7.645581 4.578595 -11.011549 0
M  V30 24 C 5.835307 2.989913 -19.188415 0
M  V30 25 H 8.288968 0.987204 -13.894407 0
M  V30 26 H 8.522682 4.661886 -21.462198 0
M  V30 27 H 4.403450 4.169126 -20.296710 0
M  V30 28 H 4.936713 -0.230807 -13.224608 0
M  V30 29 H 6.596025 -0.760507 -13.463301 0
M  V30 30 H 8.842566 7.086549 -13.090792 0
M  V30 31 H 9.461860 5.455996 -13.013199 0
M  V30 32 H 9.213945 3.022012 -19.724406 0
M  V30 33 H 6.075261 3.988657 -14.076301 0
M  V30 34 H 8.605472 1.265802 -18.246054 0
M  V30 35 H 4.757181 0.460882 -15.599322 0
M  V30 36 H 5.216341 -1.220271 -15.509155 0
M  V30 37 H 8.634895 3.505700 -14.625717 0
M  V30 38 H 8.717831 2.979399 -13.005016 0
M  V30 39 H 7.306391 6.653627 -11.222806 0
M  V30 40 H 8.586193 8.162438 -10.118004 0
M  V30 41 H 10.232975 5.965029 -10.709657 0
M  V30 42 H 9.076647 6.122967 -9.395922 0
M  V30 43 H 5.665600 4.786110 -11.831793 0
M  V30 44 H 6.175880 3.139487 -11.679759 0
M  V30 45 H 6.118636 5.235124 -21.749090 0
M  V30 46 H 6.602783 6.290415 -13.696590 0
M  V30 47 H 7.766926 5.660778 -14.822646 0
M  V30 48 H 8.475103 3.872474 -11.026302 0
M  V30 49 H 7.264290 4.573219 -9.988790 0
M  V30 50 H 5.087722 2.529823 -18.561171 0
M  V30 51 H 6.455432 1.420039 -12.522436 0
M  V30 52 H 7.592349 -0.678333 -15.948795 0
M  V30 END ATOM
M  V30 BEGIN BOND
M  V30 1 1 7 2
M  V30 2 1 9 1
M  V30 3 1 9 6
M  V30 4 1 10 4
M  V30 5 1 11 8
M  V30 6 2 12 1
M  V30 7 1 13 5
M  V30 8 1 15 11
M  V30 9 1 15 12
M  V30 10 1 16 13
M  V30 11 1 16 14
M  V30 12 2 17 7
M  V30 13 1 17 9
M  V30 14 1 18 8
M  V30 15 2 19 2
M  V30 16 1 19 3
M  V30 17 1 20 6
M  V30 18 1 20 10
M  V30 19 1 20 12
M  V30 20 1 21 5
M  V30 21 1 21 8
M  V30 22 1 22 4
M  V30 23 1 22 15
M  V30 24 1 23 13
M  V30 25 1 23 18
M  V30 26 2 24 3
M  V30 27 1 24 17
M  V30 28 1 15 25 CFG=1
M  V30 29 1 26 2
M  V30 30 1 27 3
M  V30 31 1 28 4
M  V30 32 1 29 4
M  V30 33 1 30 5
M  V30 34 1 31 5
M  V30 35 1 32 7
M  V30 36 1 8 33 CFG=3
M  V30 37 1 9 34 CFG=3
M  V30 38 1 35 10
M  V30 39 1 36 10
M  V30 40 1 37 11
M  V30 41 1 38 11
M  V30 42 1 13 39 CFG=3
M  V30 43 1 40 14
M  V30 44 1 41 16
M  V30 45 1 42 16
M  V30 46 1 43 18
M  V30 47 1 44 18
M  V30 48 1 45 19
M  V30 49 1 46 21
M  V30 50 1 47 21
M  V30 51 1 48 23
M  V30 52 1 49 23
M  V30 53 1 50 24
M  V30 54 1 51 22
M  V30 55 1 20 52 CFG=3
M  V30 END BOND
M  V30 END CTAB
M  END
>  <i_epik_Tot_Q>  (1) 
0

>  <i_epik_Tot_abs_Q>  (1) 
0

>  <i_i_glide_confnum>  (1) 
52

>  <i_i_glide_lignum>  (1) 
91

>  <i_i_glide_posenum>  (1) 
233

>  <i_i_glide_rotatable_bonds>  (1) 
5

>  <i_lp_mmshare_version>  (1) 
72125

>  <i_m_source_file_index>  (1) 
50

>  <i_f3d_flags>  (1) 
0

>  <num_sample>  (1) 
100

>  <b_lp_Chiralities_Consistent>  (1) 
1

>  <r_epik_Charging_Adjusted_Penalty>  (1) 
0.1447540794995397

>  <r_epik_Ionization_Penalty>  (1) 
0.14481163516182699

>  <r_epik_Ionization_Penalty_Charging>  (1) 
0

>  <r_epik_Ionization_Penalty_Neutral>  (1) 
0.14481163516182699

>  <r_epik_State_Penalty>  (1) 
0.1447540794995397

>  <r_glide_ring_energy>  (1) 
0.00054349889713039754

>  <r_i_docking_score>  (1) 
-3.9957956972919413

>  <r_i_glide_ecoul>  (1) 
-4.7324315498479246

>  <r_i_glide_eff_state_penalty>  (1) 
0.1447540794995397

>  <r_i_glide_einternal>  (1) 
3.2040293594442382

>  <r_i_glide_emodel>  (1) 
-34.177425820922288

>  <r_i_glide_emodel_strain>  (1) 
2.3489899339093725

>  <r_i_glide_energy>  (1) 
-29.943730800721113

>  <r_i_glide_erotb>  (1) 
0.63990235469448886

>  <r_i_glide_esite>  (1) 
0

>  <r_i_glide_evdw>  (1) 
-25.211299250873189

>  <r_i_glide_gscore>  (1) 
-4.140549776791481

>  <r_i_glide_gscore_strain>  (1) 
0

>  <r_i_glide_hbond>  (1) 
-0.16

>  <r_i_glide_ligand_efficiency>  (1) 
-0.16649148738716421

>  <r_i_glide_ligand_efficiency_ln>  (1) 
-0.95637726547893098

>  <r_i_glide_ligand_efficiency_sa>  (1) 
-0.48024455228795782

>  <r_i_glide_lipo>  (1) 
-1.0253262375740393

>  <r_i_glide_metal>  (1) 
-0

>  <r_i_glide_rewards>  (1) 
-1.6246961988910824

>  <r_lp_Energy>  (1) 
26.842413999999998

>  <r_lp_tautomer_probability>  (1) 
0.99998399999999998

>  <s_epik_Chemistry_Notes>  (1) 
This compound has an imine and may undergo hydrolysis. This compound contains an acetal/aminal-like group ( X-CH(R)-Y where X, Y are N, S, or O) that may be acid/base labile, releasing an aldehyde.

>  <s_epik_cmdline>  (1) 
J2VwaWtfcHl0aG9uJywgJy1waHQnLCAnMS4wJywgJy1waCcsICc3LjQnLCAnLXRuJywgJzgnLCAnLW1hJywgJzUwMCcsICctaW1hZScsICc8aW5maWxlLm1hZT4nLCAnLW9tYWUnLCAnPG91dGZpbGUubWFlPic=

>  <s_epik_input>  (1) 
W2NIXTFbY0hdW2NIXVtjSF1bY0hdYzFbQ0BASF0oW05IXTIpU1tDQEBIXShbQ0BIXTIzKVtDSDJdW0NIMl1OPUMzW0NIMl1bQ0BIXTRbQ0gyXVtDSDJdW0NASF0oW0NIMl1bQ0gyXTQpW0NIMl1bT0hd

>  <s_glide_docking_method>  (1) 
confgen

>  <s_i_glide_gridfile>  (1) 
gpcr_drd2_6luq_protein_autoprepared_prepared

>  <s_lp_Force_Field>  (1) 
S-OPLS

>  <s_lp_Variant>  (1) 
DiffSBDD_49_num_sample_100-1

>  <s_m_source_file>  (1) 
generated__ligand_DiffSBDD_2026-05-06_prepared.sdf

>  <GenAI_Model>  (1) 
DiffSBDD

>  <Protein>  (1) 
generic_title2

$$$$
DiffSBDD_71_num_sample_100
     RDKit          3D

  0  0  0  0  0  0  0  0  0  0999 V3000
M  V30 BEGIN CTAB
M  V30 COUNTS 59 61 0 0 1
M  V30 BEGIN ATOM
M  V30 1 C 7.858291 -4.039792 -18.564824 0
M  V30 2 C 9.323712 6.488934 -7.888503 0
M  V30 3 C 8.581138 -5.212086 -19.237916 0
M  V30 4 C 6.777055 -4.533022 -17.592269 0
M  V30 5 N 5.328153 0.169300 -15.697059 0
M  V30 6 O 6.694031 -0.905392 -20.676771 0
M  V30 7 C 6.791316 0.253779 -15.771098 0 CFG=2
M  V30 8 N 6.665484 4.210522 -12.666524 0
M  V30 9 F 10.593867 8.376280 -8.610022 0
M  V30 10 C 8.007063 5.275059 -11.148210 0
M  V30 11 C 4.654330 -0.883409 -16.453968 0
M  V30 12 C 7.182554 1.734364 -15.550228 0
M  V30 13 O 4.542989 -1.760763 -18.664248 0
M  V30 14 C 9.764613 6.864004 -10.247198 0
M  V30 15 C 6.967092 3.800742 -14.031102 0
M  V30 16 N 7.273169 -3.179577 -19.600901 0
M  V30 17 C 9.089098 5.490056 -10.128427 0 CFG=1
M  V30 18 S 7.462328 -1.461999 -19.553578 0
M  V30 19 C 8.538278 5.438644 -8.695824 0
M  V30 20 C 10.350934 7.089016 -8.855241 0 CFG=2
M  V30 21 C 6.195144 5.665819 -12.518660 0
M  V30 22 O 8.901316 -1.176241 -19.439667 0
M  V30 23 C 6.950999 2.259522 -14.119932 0
M  V30 24 N 7.138779 6.162506 -11.491665 0
M  V30 25 C 5.249191 -1.225697 -17.810761 0
M  V30 26 N 7.818995 4.169449 -11.782037 0 CHG=1
M  V30 27 C 6.665842 -0.917391 -18.021183 0
M  V30 28 C 7.371730 -0.252345 -17.088406 0
M  V30 29 H 8.591492 -3.460364 -18.000654 0
M  V30 30 H 8.638475 7.262491 -7.537662 0
M  V30 31 H 9.804461 6.059217 -7.008991 0
M  V30 32 H 9.092161 -5.831612 -18.501275 0
M  V30 33 H 7.883265 -5.850494 -19.780299 0
M  V30 34 H 9.322789 -4.854724 -19.950547 0
M  V30 35 H 7.208611 -5.181853 -16.829350 0
M  V30 36 H 6.297767 -3.709052 -17.068345 0
M  V30 37 H 5.998659 -5.098751 -18.105126 0
M  V30 38 H 5.034989 0.117371 -14.730155 0
M  V30 39 H 7.217793 -0.367804 -14.982276 0
M  V30 40 H 3.599997 -0.631056 -16.561660 0
M  V30 41 H 4.705118 -1.811060 -15.891659 0
M  V30 42 H 8.236579 1.874233 -15.792742 0
M  V30 43 H 6.635227 2.351035 -16.264171 0
M  V30 44 H 10.518278 6.899202 -11.034021 0
M  V30 45 H 9.033866 7.645764 -10.453746 0
M  V30 46 H 7.921425 4.215594 -14.358730 0
M  V30 47 H 6.198206 4.197803 -14.694542 0
M  V30 48 H 6.329947 -3.450824 -19.879758 0
M  V30 49 H 9.834819 4.704791 -10.238633 0
M  V30 50 H 7.477069 5.685724 -8.691673 0
M  V30 51 H 8.636350 4.444091 -8.263568 0
M  V30 52 H 11.303624 6.569232 -8.758763 0
M  V30 53 H 6.296711 6.233153 -13.444349 0
M  V30 54 H 7.034971 7.068169 -11.025062 0
M  V30 55 H 5.985673 1.907681 -13.754591 0
M  V30 56 H 7.700141 1.826592 -13.455624 0
M  V30 57 H 5.164154 5.716233 -12.168279 0
M  V30 58 H 8.417350 -0.044562 -17.261737 0
M  V30 59 H 8.334924 3.304228 -11.687957 0
M  V30 END ATOM
M  V30 BEGIN BOND
M  V30 1 1 3 1
M  V30 2 1 4 1
M  V30 3 1 7 5
M  V30 4 1 11 5
M  V30 5 1 12 7
M  V30 6 1 15 8
M  V30 7 1 16 1
M  V30 8 1 17 10
M  V30 9 1 17 14
M  V30 10 2 18 6
M  V30 11 1 18 16
M  V30 12 1 19 2
M  V30 13 1 19 17
M  V30 14 1 20 2
M  V30 15 1 20 9
M  V30 16 1 20 14
M  V30 17 1 21 8
M  V30 18 2 22 18
M  V30 19 1 23 12
M  V30 20 1 23 15
M  V30 21 1 24 10
M  V30 22 1 24 21
M  V30 23 1 25 11
M  V30 24 2 25 13
M  V30 25 1 26 8
M  V30 26 2 26 10
M  V30 27 1 27 18
M  V30 28 1 27 25
M  V30 29 1 28 7
M  V30 30 2 28 27
M  V30 31 1 29 1
M  V30 32 1 30 2
M  V30 33 1 31 2
M  V30 34 1 32 3
M  V30 35 1 33 3
M  V30 36 1 34 3
M  V30 37 1 35 4
M  V30 38 1 36 4
M  V30 39 1 37 4
M  V30 40 1 38 5
M  V30 41 1 7 39 CFG=1
M  V30 42 1 40 11
M  V30 43 1 41 11
M  V30 44 1 42 12
M  V30 45 1 43 12
M  V30 46 1 44 14
M  V30 47 1 45 14
M  V30 48 1 46 15
M  V30 49 1 47 15
M  V30 50 1 48 16
M  V30 51 1 17 49 CFG=1
M  V30 52 1 50 19
M  V30 53 1 51 19
M  V30 54 1 20 52 CFG=3
M  V30 55 1 53 21
M  V30 56 1 54 24
M  V30 57 1 55 23
M  V30 58 1 56 23
M  V30 59 1 57 21
M  V30 60 1 58 28
M  V30 61 1 59 26
M  V30 END BOND
M  V30 END CTAB
M  END
>  <i_epik_Tot_Q>  (1) 
1

>  <i_epik_Tot_abs_Q>  (1) 
1

>  <i_i_glide_confnum>  (1) 
46

>  <i_i_glide_lignum>  (1) 
143

>  <i_i_glide_posenum>  (1) 
339

>  <i_i_glide_rotatable_bonds>  (1) 
8

>  <i_lp_mmshare_version>  (1) 
72125

>  <i_m_source_file_index>  (1) 
72

>  <i_f3d_flags>  (1) 
0

>  <num_sample>  (1) 
100

>  <b_lp_Chiralities_Consistent>  (1) 
1

>  <r_epik_Charging_Adjusted_Penalty>  (1) 
1.5363623663438353e-06

>  <r_epik_Ionization_Penalty>  (1) 
0.0003005008715709513

>  <r_epik_Ionization_Penalty_Charging>  (1) 
1.5363623663438353e-06

>  <r_epik_Ionization_Penalty_Neutral>  (1) 
0.00029896450920460744

>  <r_epik_State_Penalty>  (1) 
-0

>  <r_glide_ring_energy>  (1) 
0

>  <r_i_docking_score>  (1) 
-3.9933974981339104

>  <r_i_glide_ecoul>  (1) 
-5.6038306533140396

>  <r_i_glide_eff_state_penalty>  (1) 
-0

>  <r_i_glide_einternal>  (1) 
4.5863805304410388

>  <r_i_glide_emodel>  (1) 
-44.563083019705587

>  <r_i_glide_emodel_strain>  (1) 
0.14183955842439389

>  <r_i_glide_energy>  (1) 
-37.115536953114052

>  <r_i_glide_erotb>  (1) 
0.79707636493019229

>  <r_i_glide_esite>  (1) 
-0.16464980516995689

>  <r_i_glide_evdw>  (1) 
-31.511706299800011

>  <r_i_glide_gscore>  (1) 
-3.9933974981339104

>  <r_i_glide_gscore_strain>  (1) 
0

>  <r_i_glide_hbond>  (1) 
-0.17557730234473526

>  <r_i_glide_ligand_efficiency>  (1) 
-0.14262133921906822

>  <r_i_glide_ligand_efficiency_ln>  (1) 
-0.92179339381473668

>  <r_i_glide_ligand_efficiency_sa>  (1) 
-0.43308238582676056

>  <r_i_glide_lipo>  (1) 
-0.64795100738317435

>  <r_i_glide_metal>  (1) 
-0

>  <r_i_glide_rewards>  (1) 
-1.3861358351791302

>  <r_lp_Energy>  (1) 
26.720799

>  <r_lp_tautomer_probability>  (1) 
1

>  <s_epik_Chemistry_Notes>  (1) 
This compound has an imine and may undergo hydrolysis. This compound contains an acetal/aminal-like group ( X-CH(R)-Y where X, Y are N, S, or O) that may be acid/base labile, releasing an aldehyde.

>  <s_epik_cmdline>  (1) 
J2VwaWtfcHl0aG9uJywgJy1waHQnLCAnMS4wJywgJy1waCcsICc3LjQnLCAnLXRuJywgJzgnLCAnLW1hJywgJzUwMCcsICctaW1hZScsICc8aW5maWxlLm1hZT4nLCAnLW9tYWUnLCAnPG91dGZpbGUubWFlPic=

>  <s_epik_input>  (1) 
W0NIM11bQ0hdKFtDSDNdKVtOSF1TKD1PKSg9TylDKD1bQ0hdMSlDKD1PKVtDSDJdW05IXVtDQEBIXTFbQ0gyXVtDSDJdW0NIMl1OMltDSDJdTj1DKFtOSF0yKVtDQEhdM1tDSDJdW0NAQEhdKEYpW0NIMl1bQ0gyXTM=

>  <s_glide_docking_method>  (1) 
confgen

>  <s_i_glide_gridfile>  (1) 
gpcr_drd2_6luq_protein_autoprepared_prepared

>  <s_lp_Force_Field>  (1) 
S-OPLS

>  <s_lp_Variant>  (1) 
DiffSBDD_71_num_sample_100-1

>  <s_m_source_file>  (1) 
generated__ligand_DiffSBDD_2026-05-06_prepared.sdf

>  <GenAI_Model>  (1) 
DiffSBDD

>  <Protein>  (1) 
generic_title2

$$$$
DiffSBDD_80_num_sample_100
     RDKit          3D

  0  0  0  0  0  0  0  0  0  0999 V3000
M  V30 BEGIN CTAB
M  V30 COUNTS 57 60 0 0 1
M  V30 BEGIN ATOM
M  V30 1 C 19.608887 7.781005 -19.032878 0
M  V30 2 C 15.797976 5.257193 -19.488899 0
M  V30 3 O 17.692394 9.676298 -17.647616 0
M  V30 4 C 12.774154 5.103404 -16.926325 0
M  V30 5 C 16.859389 9.369298 -18.498281 0
M  V30 6 C 13.290900 5.702129 -19.662430 0
M  V30 7 C 17.181996 8.373487 -19.623256 0
M  V30 8 C 15.455145 9.965324 -18.481770 0
M  V30 9 C 17.918945 4.194721 -19.883419 0
M  V30 10 C 17.785666 6.066857 -18.356148 0 CFG=2
M  V30 11 C 11.996200 6.151021 -19.030853 0 CFG=2
M  V30 12 O 6.614376 6.137364 -16.683988 0 CHG=-1
M  V30 13 C 10.387631 5.362785 -17.350480 0
M  V30 14 C 16.931455 6.503509 -17.191400 0
M  V30 15 C 11.753966 5.502509 -17.704740 0
M  V30 16 C 8.438060 4.844915 -15.815834 0
M  V30 17 C 14.171172 5.154874 -17.381912 0
M  V30 18 F 8.192556 5.626184 -14.759710 0
M  V30 19 C 14.437745 5.395666 -18.744201 0
M  V30 20 C 20.764321 6.803719 -19.305395 0
M  V30 21 C 9.930832 4.969304 -16.147238 0
M  V30 22 C 9.511721 5.668694 -18.404832 0
M  V30 23 C 18.205231 7.217038 -19.356574 0 CFG=2
M  V30 24 O 13.378652 5.643195 -20.888849 0
M  V30 25 S 10.326004 6.129140 -19.913578 0
M  V30 26 N 17.090063 4.908743 -18.912512 0
M  V30 27 F 8.197407 3.595940 -15.412382 0
M  V30 28 C 15.214442 4.819274 -16.386080 0
M  V30 29 C 16.447362 5.367539 -16.323616 0
M  V30 30 C 8.168215 5.592766 -18.291894 0
M  V30 31 C 7.434854 5.168115 -17.010655 0 CFG=2
M  V30 32 H 19.784768 8.671213 -19.638064 0
M  V30 33 H 19.645947 8.119341 -17.998930 0
M  V30 34 H 15.572293 4.409955 -20.138998 0
M  V30 35 H 15.911598 6.068768 -20.199880 0
M  V30 36 H 12.566646 4.673185 -15.959781 0
M  V30 37 H 16.232291 7.983726 -19.976716 0
M  V30 38 H 17.559956 8.971019 -20.452890 0
M  V30 39 H 15.271023 10.530957 -19.395322 0
M  V30 40 H 15.332872 10.636263 -17.631204 0
M  V30 41 H 14.706747 9.176219 -18.406066 0
M  V30 42 H 18.918666 4.007894 -19.492080 0
M  V30 43 H 18.016333 4.732349 -20.826295 0
M  V30 44 H 17.475977 3.224093 -20.108806 0
M  V30 45 H 18.693829 5.658857 -17.917175 0
M  V30 46 H 12.161935 7.203704 -18.799159 0
M  V30 47 H 17.518703 7.172490 -16.564212 0
M  V30 48 H 16.059976 7.073444 -17.500770 0
M  V30 49 H 21.724672 7.274041 -19.092608 0
M  V30 50 H 20.777240 6.489851 -20.349235 0
M  V30 51 H 20.703827 5.907092 -18.690804 0
M  V30 52 H 10.618319 4.736278 -15.351447 0
M  V30 53 H 18.330875 6.769674 -20.339927 0
M  V30 54 H 14.964136 4.081787 -15.636594 0
M  V30 55 H 17.129074 5.037668 -15.553501 0
M  V30 56 H 7.548467 5.830398 -19.143930 0
M  V30 57 H 7.033938 4.200287 -17.313628 0
M  V30 END ATOM
M  V30 BEGIN BOND
M  V30 1 2 5 3
M  V30 2 1 7 5
M  V30 3 1 8 5
M  V30 4 1 11 6
M  V30 5 1 14 10
M  V30 6 2 15 4
M  V30 7 1 15 11
M  V30 8 1 15 13
M  V30 9 1 17 4
M  V30 10 1 18 16
M  V30 11 1 19 2
M  V30 12 1 19 6
M  V30 13 2 19 17
M  V30 14 1 20 1
M  V30 15 2 21 13
M  V30 16 1 21 16
M  V30 17 1 22 13
M  V30 18 1 23 1
M  V30 19 1 23 7
M  V30 20 1 23 10
M  V30 21 2 24 6
M  V30 22 1 25 11
M  V30 23 1 25 22
M  V30 24 1 26 2
M  V30 25 1 26 9
M  V30 26 1 26 10
M  V30 27 1 27 16
M  V30 28 1 28 17
M  V30 29 1 29 14
M  V30 30 2 29 28
M  V30 31 2 30 22
M  V30 32 1 31 12
M  V30 33 1 31 16
M  V30 34 1 31 30
M  V30 35 1 32 1
M  V30 36 1 33 1
M  V30 37 1 34 2
M  V30 38 1 35 2
M  V30 39 1 36 4
M  V30 40 1 37 7
M  V30 41 1 38 7
M  V30 42 1 39 8
M  V30 43 1 40 8
M  V30 44 1 41 8
M  V30 45 1 42 9
M  V30 46 1 43 9
M  V30 47 1 44 9
M  V30 48 1 10 45 CFG=1
M  V30 49 1 11 46 CFG=1
M  V30 50 1 47 14
M  V30 51 1 48 14
M  V30 52 1 49 20
M  V30 53 1 50 20
M  V30 54 1 51 20
M  V30 55 1 52 21
M  V30 56 1 23 53 CFG=3
M  V30 57 1 54 28
M  V30 58 1 55 29
M  V30 59 1 56 30
M  V30 60 1 31 57 CFG=3
M  V30 END BOND
M  V30 END CTAB
M  END
>  <i_epik_Tot_Q>  (1) 
-1

>  <i_epik_Tot_abs_Q>  (1) 
1

>  <i_i_glide_confnum>  (1) 
5

>  <i_i_glide_lignum>  (1) 
163

>  <i_i_glide_posenum>  (1) 
202

>  <i_i_glide_rotatable_bonds>  (1) 
4

>  <i_lp_mmshare_version>  (1) 
72125

>  <i_m_source_file_index>  (1) 
81

>  <i_f3d_flags>  (1) 
0

>  <num_sample>  (1) 
100

>  <b_lp_Chiralities_Consistent>  (1) 
1

>  <r_epik_Charging_Adjusted_Penalty>  (1) 
8.7803366933407872e-06

>  <r_epik_Ionization_Penalty>  (1) 
0.00048743314384941063

>  <r_epik_Ionization_Penalty_Charging>  (1) 
8.7803366933407872e-06

>  <r_epik_Ionization_Penalty_Neutral>  (1) 
0.00047865280715606983

>  <r_epik_State_Penalty>  (1) 
-0

>  <r_glide_ring_energy>  (1) 
0

>  <r_i_docking_score>  (1) 
-3.9912935593478887

>  <r_i_glide_ecoul>  (1) 
-2.5964630165034519

>  <r_i_glide_eff_state_penalty>  (1) 
-0

>  <r_i_glide_einternal>  (1) 
1.711985113382696

>  <r_i_glide_emodel>  (1) 
-33.947981120648222

>  <r_i_glide_emodel_strain>  (1) 
2.5488621552409825

>  <r_i_glide_energy>  (1) 
-30.810578231414535

>  <r_i_glide_erotb>  (1) 
0.20077648214602295

>  <r_i_glide_esite>  (1) 
0

>  <r_i_glide_evdw>  (1) 
-28.214115214911082

>  <r_i_glide_gscore>  (1) 
-3.9912935593478887

>  <r_i_glide_gscore_strain>  (1) 
0

>  <r_i_glide_hbond>  (1) 
0

>  <r_i_glide_ligand_efficiency>  (1) 
-0.12875140514025446

>  <r_i_glide_ligand_efficiency_ln>  (1) 
-0.90015901609065174

>  <r_i_glide_ligand_efficiency_sa>  (1) 
-0.4044571730758012

>  <r_i_glide_lipo>  (1) 
-1.5383806497457866

>  <r_i_glide_metal>  (1) 
-0

>  <r_i_glide_rewards>  (1) 
-0.8535141785270528

>  <r_lp_Energy>  (1) 
60.210590999999994

>  <r_lp_tautomer_probability>  (1) 
1

>  <s_epik_cmdline>  (1) 
J2VwaWtfcHl0aG9uJywgJy1waHQnLCAnMS4wJywgJy1waCcsICc3LjQnLCAnLXRuJywgJzgnLCAnLW1hJywgJzUwMCcsICctaW1hZScsICc8aW5maWxlLm1hZT4nLCAnLW9tYWUnLCAnPG91dGZpbGUubWFlPic=

>  <s_epik_input>  (1) 
Tz1DKFtDSDNdKVtDSDJdW0NAQEhdKFtDSDJdW0NIM10pW0NAQEhdKFtDSDJdL1tDSF09W0NIXVwxKU4oW0NIM10pW0NIMl1DKEMyPU8pPUMxW0NIXT1DKFtDQEhdMjMpQz00QyhTMyk9W0NIXVtDQEhdKFtPSF0pQyhGKShGKVtDSF00

>  <s_glide_docking_method>  (1) 
confgen

>  <s_i_glide_gridfile>  (1) 
gpcr_drd2_6luq_protein_autoprepared_prepared

>  <s_lp_Force_Field>  (1) 
S-OPLS

>  <s_lp_Variant>  (1) 
DiffSBDD_80_num_sample_100-2

>  <s_m_source_file>  (1) 
generated__ligand_DiffSBDD_2026-05-06_prepared.sdf

>  <GenAI_Model>  (1) 
DiffSBDD

>  <Protein>  (1) 
generic_title2

$$$$
DiffSBDD_28_num_sample_100
     RDKit          3D

  0  0  0  0  0  0  0  0  0  0999 V3000
M  V30 BEGIN CTAB
M  V30 COUNTS 42 43 0 0 1
M  V30 BEGIN ATOM
M  V30 1 C 12.092994 9.019309 -3.252295 0
M  V30 2 C 7.398103 4.738029 -11.636445 0
M  V30 3 C 12.144616 8.995128 -4.785386 0
M  V30 4 N 10.263520 6.852389 -7.442943 0
M  V30 5 C 11.435165 6.569808 -3.207312 0
M  V30 6 C 9.926292 7.014453 -8.690199 0
M  V30 7 C 11.105883 6.715757 -4.691611 0
M  V30 8 O 10.234795 8.104964 -10.788497 0
M  V30 9 C 9.107482 4.721049 -9.706544 0
M  V30 10 C 9.781226 4.720848 -12.098925 0
M  V30 11 C 8.829994 6.169288 -9.339445 0
M  V30 12 C 6.225389 4.482277 -10.690901 0
M  V30 13 C 11.630772 8.798690 -7.722249 0
M  V30 14 N 11.460534 8.969280 -9.042285 0 CHG=-1
M  V30 15 N 8.742610 4.348456 -11.116994 0 CFG=2 CHG=1
M  V30 16 C 12.411990 7.636083 -2.687618 0
M  V30 17 C 10.570876 8.100711 -9.605948 0
M  V30 18 C 11.123972 7.830450 -6.877582 0
M  V30 19 C 11.433593 7.796368 -5.436453 0
M  V30 20 H 12.808096 9.749714 -2.874424 0
M  V30 21 H 11.116439 9.369193 -2.914570 0
M  V30 22 H 7.390794 5.787333 -11.935191 0
M  V30 23 H 7.222164 4.169952 -12.551131 0
M  V30 24 H 13.186170 9.019592 -5.091899 0
M  V30 25 H 11.696030 9.920635 -5.147904 0
M  V30 26 H 10.529661 6.560796 -2.608117 0
M  V30 27 H 11.896645 5.597393 -3.055697 0
M  V30 28 H 10.606281 5.877555 -5.152857 0
M  V30 29 H 10.125819 4.427119 -9.463595 0
M  V30 30 H 8.474680 4.169303 -9.019127 0
M  V30 31 H 10.003104 5.787894 -12.077415 0
M  V30 32 H 10.683885 4.169330 -11.891757 0
M  V30 33 H 9.485737 4.455329 -13.114124 0
M  V30 34 H 7.993772 6.169296 -8.641811 0
M  V30 35 H 8.474007 6.659490 -10.238905 0
M  V30 36 H 5.277192 4.605441 -11.214491 0
M  V30 37 H 6.234851 3.485003 -10.254376 0
M  V30 38 H 6.234727 5.216753 -9.891651 0
M  V30 39 H 12.296319 9.548716 -7.253764 0
M  V30 40 H 13.426206 7.367985 -2.986483 0
M  V30 41 H 12.407090 7.655925 -1.597589 0
M  V30 42 H 8.740309 3.336577 -11.113961 0
M  V30 END ATOM
M  V30 BEGIN BOND
M  V30 1 1 3 1
M  V30 2 2 6 4
M  V30 3 1 7 5
M  V30 4 1 11 6
M  V30 5 1 11 9
M  V30 6 1 12 2
M  V30 7 1 14 13
M  V30 8 1 15 2
M  V30 9 1 15 9
M  V30 10 1 15 10
M  V30 11 1 16 1
M  V30 12 1 16 5
M  V30 13 1 17 6
M  V30 14 2 17 8
M  V30 15 1 17 14
M  V30 16 1 18 4
M  V30 17 2 18 13
M  V30 18 1 19 3
M  V30 19 2 19 7
M  V30 20 1 19 18
M  V30 21 1 20 1
M  V30 22 1 21 1
M  V30 23 1 22 2
M  V30 24 1 23 2
M  V30 25 1 24 3
M  V30 26 1 25 3
M  V30 27 1 26 5
M  V30 28 1 27 5
M  V30 29 1 28 7
M  V30 30 1 29 9
M  V30 31 1 30 9
M  V30 32 1 31 10
M  V30 33 1 32 10
M  V30 34 1 33 10
M  V30 35 1 34 11
M  V30 36 1 35 11
M  V30 37 1 36 12
M  V30 38 1 37 12
M  V30 39 1 38 12
M  V30 40 1 39 13
M  V30 41 1 40 16
M  V30 42 1 41 16
M  V30 43 1 15 42 CFG=1
M  V30 END BOND
M  V30 END CTAB
M  END
>  <i_epik_Tot_Q>  (1) 
0

>  <i_epik_Tot_abs_Q>  (1) 
2

>  <i_i_glide_confnum>  (1) 
4

>  <i_i_glide_lignum>  (1) 
50

>  <i_i_glide_posenum>  (1) 
315

>  <i_i_glide_rotatable_bonds>  (1) 
5

>  <i_lp_mmshare_version>  (1) 
72125

>  <i_m_source_file_index>  (1) 
29

>  <i_f3d_flags>  (1) 
0

>  <num_sample>  (1) 
100

>  <b_lp_Chiralities_Consistent>  (1) 
1

>  <r_epik_Charging_Adjusted_Penalty>  (1) 
1.2889852773217638

>  <r_epik_Ionization_Penalty>  (1) 
1.2889869126975093

>  <r_epik_Ionization_Penalty_Charging>  (1) 
0.026956894772998535

>  <r_epik_Ionization_Penalty_Neutral>  (1) 
1.2620300179245107

>  <r_epik_State_Penalty>  (1) 
1.2620283825487653

>  <r_glide_ring_energy>  (1) 
0

>  <r_i_docking_score>  (1) 
-3.9848350903639886

>  <r_i_glide_ecoul>  (1) 
-4.057758966936726

>  <r_i_glide_eff_state_penalty>  (1) 
1.2620283825487653

>  <r_i_glide_einternal>  (1) 
14.236467504967756

>  <r_i_glide_emodel>  (1) 
-30.742660389681074

>  <r_i_glide_emodel_strain>  (1) 
1.058411972037284

>  <r_i_glide_energy>  (1) 
-26.304805802080224

>  <r_i_glide_erotb>  (1) 
1.0375715866235848

>  <r_i_glide_esite>  (1) 
0

>  <r_i_glide_evdw>  (1) 
-22.2470468351435

>  <r_i_glide_gscore>  (1) 
-5.2468634729127537

>  <r_i_glide_gscore_strain>  (1) 
0

>  <r_i_glide_hbond>  (1) 
0

>  <r_i_glide_ligand_efficiency>  (1) 
-0.20972816265073624

>  <r_i_glide_ligand_efficiency_ln>  (1) 
-1.0102412818174931

>  <r_i_glide_ligand_efficiency_sa>  (1) 
-0.55963897500064885

>  <r_i_glide_lipo>  (1) 
-2.2495627809699728

>  <r_i_glide_metal>  (1) 
-0

>  <r_i_glide_rewards>  (1) 
-2.3138560917686819

>  <r_lp_Energy>  (1) 
33.776638999999996

>  <s_epik_cmdline>  (1) 
J2VwaWtfcHl0aG9uJywgJy1waHQnLCAnMS4wJywgJy1waCcsICc3LjQnLCAnLXRuJywgJzgnLCAnLW1hJywgJzUwMCcsICctaW1hZScsICc8aW5maWxlLm1hZT4nLCAnLW9tYWUnLCAnPG91dGZpbGUubWFlPic=

>  <s_epik_input>  (1) 
W0NIMl0xW0NIMl1bQ0gyXVtDSDJdW0NIXT1DMWMoW2NIXVtuSF1jMj1PKW5jMltDSDJdW0NIMl1OKFtDSDNdKVtDSDJdW0NIM10=

>  <s_glide_docking_method>  (1) 
confgen

>  <s_i_glide_gridfile>  (1) 
gpcr_drd2_6luq_protein_autoprepared_prepared

>  <s_lp_Force_Field>  (1) 
S-OPLS

>  <s_lp_Variant>  (1) 
DiffSBDD_28_num_sample_100-4

>  <s_m_source_file>  (1) 
generated__ligand_DiffSBDD_2026-05-06_prepared.sdf

>  <GenAI_Model>  (1) 
DiffSBDD

>  <Protein>  (1) 
generic_title2

$$$$
DiffSBDD_12_num_sample_100
     RDKit          3D

  0  0  0  0  0  0  0  0  0  0999 V3000
M  V30 BEGIN CTAB
M  V30 COUNTS 67 71 0 0 1
M  V30 BEGIN ATOM
M  V30 1 C 6.103308 5.371326 -19.985210 0
M  V30 2 C 6.022335 5.727016 -18.587493 0
M  V30 3 F 4.828924 7.979215 -22.933070 0
M  V30 4 O 10.235204 5.369055 -15.084892 0
M  V30 5 C 11.834974 9.769244 -8.842575 0
M  V30 6 C 5.628212 7.404450 -16.763251 0
M  V30 7 C 5.255176 6.972737 -18.175674 0 CFG=1
M  V30 8 F 3.837178 9.262037 -21.506119 0
M  V30 9 C 9.542006 7.535800 -7.198001 0
M  V30 10 C 7.371930 3.032248 -15.451850 0
M  V30 11 C 4.959625 8.583242 -21.750906 0
M  V30 12 C 7.834550 4.583993 -11.127838 0 CFG=1
M  V30 13 C 9.914216 6.326423 -6.334973 0
M  V30 14 C 11.441911 6.232199 -6.416584 0
M  V30 15 C 10.655813 8.876236 -9.120152 0
M  V30 16 C 5.240169 7.582452 -20.636240 0
M  V30 17 C 6.635019 4.969195 -17.652727 0
M  V30 18 C 6.272061 6.580552 -15.920267 0
M  V30 19 O 6.637614 4.432281 -11.867519 0
M  V30 20 O 7.706433 5.034833 -14.198133 0
M  V30 21 C 9.591397 5.820324 -12.391806 0 CFG=1
M  V30 22 C 10.607451 7.558822 -8.313082 0
M  V30 23 C 7.249563 4.420441 -15.327807 0
M  V30 24 F 5.959907 9.461013 -21.838207 0
M  V30 25 C 9.016029 6.615189 -10.063177 0
M  V30 26 C 11.826749 7.350316 -7.387205 0
M  V30 27 C 8.892769 3.583418 -11.574869 0
M  V30 28 P 9.313933 4.969617 -13.983606 0 CFG=2
M  V30 29 C 8.499594 5.963793 -11.366533 0 CFG=2
M  V30 30 C 10.378623 6.445606 -9.380715 0
M  V30 31 O 7.833441 2.122054 -14.732025 0 CHG=-1
M  V30 32 C 5.724528 6.234541 -20.948707 0
M  V30 33 C 5.046698 7.928944 -19.342860 0
M  V30 34 N 6.685462 5.302906 -16.286556 0
M  V30 35 C 9.881602 4.363833 -12.367034 0 CFG=1
M  V30 36 H 6.494412 4.404732 -20.264464 0
M  V30 37 H 11.831364 10.641736 -9.491456 0
M  V30 38 H 11.834605 10.105058 -7.804683 0
M  V30 39 H 12.769070 9.248484 -9.048297 0
M  V30 40 H 5.320922 8.387539 -16.441312 0
M  V30 41 H 4.236358 6.612989 -18.021992 0
M  V30 42 H 9.610227 8.446875 -6.601064 0
M  V30 43 H 8.518208 7.489871 -7.537738 0
M  V30 44 H 6.924534 2.807746 -16.430350 0
M  V30 45 H 7.568751 4.422836 -10.082700 0
M  V30 46 H 9.563042 6.418873 -5.309938 0
M  V30 47 H 9.457519 5.433580 -6.762695 0
M  V30 48 H 11.895815 6.382970 -5.437564 0
M  V30 49 H 11.767640 5.262960 -6.788517 0
M  V30 50 H 10.756208 8.691102 -10.189429 0
M  V30 51 H 9.694744 9.369241 -9.029866 0
M  V30 52 H 7.183546 4.082446 -17.916287 0
M  V30 53 H 6.506561 6.856273 -14.904659 0
M  V30 54 H 6.838651 4.527002 -12.792987 0
M  V30 55 H 10.415202 6.530165 -12.378230 0
M  V30 56 H 8.863527 7.664965 -10.291472 0
M  V30 57 H 8.292723 6.325777 -9.304105 0
M  V30 58 H 12.778709 7.275997 -7.891602 0
M  V30 59 H 11.953239 8.225603 -6.749404 0
M  V30 60 H 9.434075 3.206137 -10.708484 0
M  V30 61 H 8.510792 2.740792 -12.148360 0
M  V30 62 H 7.743982 6.637225 -11.776255 0
M  V30 63 H 10.451220 5.445156 -8.956308 0
M  V30 64 H 11.143755 6.569331 -10.135729 0
M  V30 65 H 5.816691 5.937278 -21.984215 0
M  V30 66 H 4.694973 8.916703 -19.104577 0
M  V30 67 H 10.897062 4.169783 -12.088987 0
M  V30 END ATOM
M  V30 BEGIN BOND
M  V30 1 1 2 1
M  V30 2 1 7 2
M  V30 3 1 7 6
M  V30 4 1 11 3
M  V30 5 1 11 8
M  V30 6 1 13 9
M  V30 7 1 14 13
M  V30 8 1 15 5
M  V30 9 1 16 11
M  V30 10 2 17 2
M  V30 11 2 18 6
M  V30 12 1 19 12
M  V30 13 1 22 9
M  V30 14 1 22 15
M  V30 15 2 23 10
M  V30 16 1 23 20
M  V30 17 1 24 11
M  V30 18 1 26 14
M  V30 19 1 26 22
M  V30 20 1 27 12
M  V30 21 2 28 4
M  V30 22 1 28 20 CFG=3
M  V30 23 1 28 21
M  V30 24 1 29 12
M  V30 25 1 29 21
M  V30 26 1 29 25
M  V30 27 1 30 22
M  V30 28 1 30 25
M  V30 29 1 31 10
M  V30 30 2 32 1
M  V30 31 1 32 16
M  V30 32 1 33 7
M  V30 33 2 33 16
M  V30 34 1 34 17
M  V30 35 1 34 18
M  V30 36 1 34 23
M  V30 37 1 35 21
M  V30 38 1 35 27
M  V30 39 1 35 28
M  V30 40 1 36 1
M  V30 41 1 37 5
M  V30 42 1 38 5
M  V30 43 1 39 5
M  V30 44 1 40 6
M  V30 45 1 7 41 CFG=1
M  V30 46 1 42 9
M  V30 47 1 43 9
M  V30 48 1 44 10
M  V30 49 1 12 45 CFG=1
M  V30 50 1 46 13
M  V30 51 1 47 13
M  V30 52 1 48 14
M  V30 53 1 49 14
M  V30 54 1 50 15
M  V30 55 1 51 15
M  V30 56 1 52 17
M  V30 57 1 53 18
M  V30 58 1 54 19
M  V30 59 1 21 55 CFG=3
M  V30 60 1 56 25
M  V30 61 1 57 25
M  V30 62 1 58 26
M  V30 63 1 59 26
M  V30 64 1 60 27
M  V30 65 1 61 27
M  V30 66 1 29 62 CFG=3
M  V30 67 1 63 30
M  V30 68 1 64 30
M  V30 69 1 65 32
M  V30 70 1 66 33
M  V30 71 1 35 67 CFG=3
M  V30 END BOND
M  V30 END CTAB
M  END
>  <i_epik_Tot_Q>  (1) 
-1

>  <i_epik_Tot_abs_Q>  (1) 
1

>  <i_i_glide_confnum>  (1) 
40

>  <i_i_glide_lignum>  (1) 
20

>  <i_i_glide_posenum>  (1) 
167

>  <i_i_glide_rotatable_bonds>  (1) 
9

>  <i_lp_mmshare_version>  (1) 
72125

>  <i_m_source_file_index>  (1) 
13

>  <i_f3d_flags>  (1) 
0

>  <num_sample>  (1) 
100

>  <b_lp_Chiralities_Consistent>  (1) 
1

>  <r_epik_Charging_Adjusted_Penalty>  (1) 
6.0913929175536644e-07

>  <r_epik_Ionization_Penalty>  (1) 
7.5242037030438095e-07

>  <r_epik_Ionization_Penalty_Charging>  (1) 
6.0913929175536644e-07

>  <r_epik_Ionization_Penalty_Neutral>  (1) 
1.4328107854901448e-07

>  <r_epik_State_Penalty>  (1) 
-0

>  <r_glide_ring_energy>  (1) 
0.00028320506983768638

>  <r_i_docking_score>  (1) 
-3.9806755811457997

>  <r_i_glide_ecoul>  (1) 
-0.27598052991958255

>  <r_i_glide_eff_state_penalty>  (1) 
-0

>  <r_i_glide_einternal>  (1) 
9.4868403023338708

>  <r_i_glide_emodel>  (1) 
-10.546855702708351

>  <r_i_glide_emodel_strain>  (1) 
4.6355478851768765

>  <r_i_glide_energy>  (1) 
-13.908530643919017

>  <r_i_glide_erotb>  (1) 
0.47163652173243925

>  <r_i_glide_esite>  (1) 
0

>  <r_i_glide_evdw>  (1) 
-13.632550113999434

>  <r_i_glide_gscore>  (1) 
-3.9806755811457997

>  <r_i_glide_gscore_strain>  (1) 
0.15888697129421914

>  <r_i_glide_hbond>  (1) 
0

>  <r_i_glide_ligand_efficiency>  (1) 
-0.11373358803273713

>  <r_i_glide_ligand_efficiency_ln>  (1) 
-0.87384663639605209

>  <r_i_glide_ligand_efficiency_sa>  (1) 
-0.37203010815075466

>  <r_i_glide_lipo>  (1) 
-2.461191909505787

>  <r_i_glide_metal>  (1) 
-0

>  <r_i_glide_rewards>  (1) 
-1.4269825794787612

>  <r_lp_Energy>  (1) 
62.944064999999995

>  <r_lp_tautomer_probability>  (1) 
1

>  <s_epik_Chemistry_Notes>  (1) 
This compound has an imine and may undergo hydrolysis.

>  <s_epik_cmdline>  (1) 
J2VwaWtfcHl0aG9uJywgJy1waHQnLCAnMS4wJywgJy1waCcsICc3LjQnLCAnLXRuJywgJzgnLCAnLW1hJywgJzUwMCcsICctaW1hZScsICc8aW5maWxlLm1hZT4nLCAnLW9tYWUnLCAnPG91dGZpbGUubWFlPic=

>  <s_epik_input>  (1) 
W0NIXTE9W0NIXUMoQyhGKShGKUYpPVtDSF1bQ0BASF0oQzE9MilbQ0hdPVtDSF1OKFtDSF0yKVtDQEBIXShbQ0hdPU8pT1tQQF0zKD1PKVtDQEBIXShbQ0BASF0zNClbQ0gyXVtDQEhdKFtPSF0pW0NASF00W0NIMl1bQ0gyXUM1KFtDSDJdW0NIM10pW0NIMl1bQ0gyXVtDSDJdW0NIMl01

>  <s_glide_docking_method>  (1) 
confgen

>  <s_i_glide_gridfile>  (1) 
gpcr_drd2_6luq_protein_autoprepared_prepared

>  <s_lp_Force_Field>  (1) 
S-OPLS

>  <s_lp_Variant>  (1) 
DiffSBDD_12_num_sample_100-1

>  <s_m_source_file>  (1) 
generated__ligand_DiffSBDD_2026-05-06_prepared.sdf

>  <GenAI_Model>  (1) 
DiffSBDD

>  <Protein>  (1) 
generic_title2

$$$$
DiffSBDD_49_num_sample_100
     RDKit          3D

  0  0  0  0  0  0  0  0  0  0999 V3000
M  V30 BEGIN CTAB
M  V30 COUNTS 52 55 0 0 1
M  V30 BEGIN ATOM
M  V30 1 N 7.845335 2.550350 -16.937614 0
M  V30 2 C 5.699849 6.711112 -16.443639 0
M  V30 3 C 5.661610 5.960087 -18.764844 0
M  V30 4 C 10.368730 0.203688 -19.146692 0
M  V30 5 C 5.094841 0.741552 -13.922298 0
M  V30 6 S 9.754280 4.135823 -17.950795 0
M  V30 7 C 6.714571 5.776822 -16.156693 0
M  V30 8 C 6.830608 -0.278036 -15.507983 0 CFG=1
M  V30 9 C 8.307647 3.925290 -16.862641 0 CFG=1
M  V30 10 C 10.430726 1.742933 -19.205257 0
M  V30 11 C 7.315703 -0.379849 -16.988114 0
M  V30 12 C 8.772220 1.797984 -17.355162 0
M  V30 13 C 6.199516 1.298134 -13.000817 0 CFG=2
M  V30 14 O 5.596111 3.682934 -13.089994 0
M  V30 15 C 8.675668 0.261827 -17.393330 0 CFG=2
M  V30 16 C 6.632648 2.749648 -13.319843 0
M  V30 17 C 7.208827 4.933663 -17.175781 0
M  V30 18 C 7.917779 0.116622 -14.472860 0
M  V30 19 C 5.173283 6.802514 -17.746918 0
M  V30 20 C 10.065901 2.368945 -17.849835 0 CFG=2
M  V30 21 C 5.577589 0.572060 -15.380143 0
M  V30 22 N 9.037641 -0.234148 -18.725389 0
M  V30 23 C 7.377003 0.318791 -13.046730 0
M  V30 24 C 6.678855 5.026481 -18.481530 0
M  V30 25 H 9.435732 -0.126412 -16.715250 0
M  V30 26 H 5.324990 7.357161 -15.663031 0
M  V30 27 H 5.256469 6.030035 -19.763427 0
M  V30 28 H 10.587491 -0.220474 -20.127712 0
M  V30 29 H 11.120488 -0.183051 -18.457396 0
M  V30 30 H 4.767584 -0.227649 -13.545476 0
M  V30 31 H 4.205826 1.369297 -13.891043 0
M  V30 32 H 7.114210 5.707320 -15.155298 0
M  V30 33 H 6.422738 -1.245522 -15.241587 0
M  V30 34 H 8.657609 4.107838 -15.844783 0
M  V30 35 H 9.749050 2.102876 -19.977960 0
M  V30 36 H 11.429322 2.062806 -19.503164 0
M  V30 37 H 7.391838 -1.447360 -17.202440 0
M  V30 38 H 6.534261 -0.023098 -17.661143 0
M  V30 39 H 5.834839 1.285993 -11.973773 0
M  V30 40 H 5.440724 3.736760 -12.158988 0
M  V30 41 H 6.960320 2.850533 -14.351980 0
M  V30 42 H 7.481753 3.030755 -12.695887 0
M  V30 43 H 8.695621 -0.640663 -14.456039 0
M  V30 44 H 8.413388 1.039539 -14.759446 0
M  V30 45 H 4.394401 7.518802 -17.965838 0
M  V30 46 H 4.771408 0.162126 -15.989405 0
M  V30 47 H 5.834841 1.529676 -15.815831 0
M  V30 48 H 8.177626 0.666064 -12.395416 0
M  V30 49 H 7.034380 -0.629881 -12.636968 0
M  V30 50 H 7.052016 4.381260 -19.263792 0
M  V30 51 H 8.980187 -1.242936 -18.737659 0
M  V30 52 H 10.840266 2.176654 -17.106066 0
M  V30 END ATOM
M  V30 BEGIN BOND
M  V30 1 1 7 2
M  V30 2 1 9 1
M  V30 3 1 9 6
M  V30 4 1 10 4
M  V30 5 1 11 8
M  V30 6 2 12 1
M  V30 7 1 13 5
M  V30 8 1 15 11
M  V30 9 1 15 12
M  V30 10 1 16 13
M  V30 11 1 16 14
M  V30 12 2 17 7
M  V30 13 1 17 9
M  V30 14 1 18 8
M  V30 15 2 19 2
M  V30 16 1 19 3
M  V30 17 1 20 6
M  V30 18 1 20 10
M  V30 19 1 20 12
M  V30 20 1 21 5
M  V30 21 1 21 8
M  V30 22 1 22 4
M  V30 23 1 22 15
M  V30 24 1 23 13
M  V30 25 1 23 18
M  V30 26 2 24 3
M  V30 27 1 24 17
M  V30 28 1 15 25 CFG=1
M  V30 29 1 26 2
M  V30 30 1 27 3
M  V30 31 1 28 4
M  V30 32 1 29 4
M  V30 33 1 30 5
M  V30 34 1 31 5
M  V30 35 1 32 7
M  V30 36 1 8 33 CFG=1
M  V30 37 1 9 34 CFG=1
M  V30 38 1 35 10
M  V30 39 1 36 10
M  V30 40 1 37 11
M  V30 41 1 38 11
M  V30 42 1 13 39 CFG=1
M  V30 43 1 40 14
M  V30 44 1 41 16
M  V30 45 1 42 16
M  V30 46 1 43 18
M  V30 47 1 44 18
M  V30 48 1 45 19
M  V30 49 1 46 21
M  V30 50 1 47 21
M  V30 51 1 48 23
M  V30 52 1 49 23
M  V30 53 1 50 24
M  V30 54 1 51 22
M  V30 55 1 20 52 CFG=1
M  V30 END BOND
M  V30 END CTAB
M  END
>  <i_epik_Tot_Q>  (1) 
0

>  <i_epik_Tot_abs_Q>  (1) 
0

>  <i_i_glide_confnum>  (1) 
59

>  <i_i_glide_lignum>  (1) 
91

>  <i_i_glide_posenum>  (1) 
286

>  <i_i_glide_rotatable_bonds>  (1) 
5

>  <i_lp_mmshare_version>  (1) 
72125

>  <i_m_source_file_index>  (1) 
50

>  <i_f3d_flags>  (1) 
0

>  <num_sample>  (1) 
100

>  <b_lp_Chiralities_Consistent>  (1) 
1

>  <r_epik_Charging_Adjusted_Penalty>  (1) 
0.1447540794995397

>  <r_epik_Ionization_Penalty>  (1) 
0.14481163516182699

>  <r_epik_Ionization_Penalty_Charging>  (1) 
0

>  <r_epik_Ionization_Penalty_Neutral>  (1) 
0.14481163516182699

>  <r_epik_State_Penalty>  (1) 
0.1447540794995397

>  <r_glide_ring_energy>  (1) 
0

>  <r_i_docking_score>  (1) 
-3.9791412853555932

>  <r_i_glide_ecoul>  (1) 
-0.5940842305259415

>  <r_i_glide_eff_state_penalty>  (1) 
0.1447540794995397

>  <r_i_glide_einternal>  (1) 
2.5593623608752569

>  <r_i_glide_emodel>  (1) 
-29.899526868388797

>  <r_i_glide_emodel_strain>  (1) 
0.049795238584927404

>  <r_i_glide_energy>  (1) 
-23.077224730881312

>  <r_i_glide_erotb>  (1) 
0.63990235469448886

>  <r_i_glide_esite>  (1) 
0

>  <r_i_glide_evdw>  (1) 
-22.483140500355372

>  <r_i_glide_gscore>  (1) 
-4.1238953648551329

>  <r_i_glide_gscore_strain>  (1) 
0

>  <r_i_glide_hbond>  (1) 
0

>  <r_i_glide_ligand_efficiency>  (1) 
-0.16579755355648304

>  <r_i_glide_ligand_efficiency_ln>  (1) 
-0.95239110048139641

>  <r_i_glide_ligand_efficiency_sa>  (1) 
-0.47824290074971443

>  <r_i_glide_lipo>  (1) 
-2.0953567138325986

>  <r_i_glide_metal>  (1) 
-0

>  <r_i_glide_rewards>  (1) 
-1.4551713461203633

>  <r_lp_Energy>  (1) 
26.842413999999998

>  <r_lp_tautomer_probability>  (1) 
0.99998399999999998

>  <s_epik_Chemistry_Notes>  (1) 
This compound has an imine and may undergo hydrolysis. This compound contains an acetal/aminal-like group ( X-CH(R)-Y where X, Y are N, S, or O) that may be acid/base labile, releasing an aldehyde.

>  <s_epik_cmdline>  (1) 
J2VwaWtfcHl0aG9uJywgJy1waHQnLCAnMS4wJywgJy1waCcsICc3LjQnLCAnLXRuJywgJzgnLCAnLW1hJywgJzUwMCcsICctaW1hZScsICc8aW5maWxlLm1hZT4nLCAnLW9tYWUnLCAnPG91dGZpbGUubWFlPic=

>  <s_epik_input>  (1) 
W2NIXTFbY0hdW2NIXVtjSF1bY0hdYzFbQ0BASF0oW05IXTIpU1tDQEBIXShbQ0BIXTIzKVtDSDJdW0NIMl1OPUMzW0NIMl1bQ0BIXTRbQ0gyXVtDSDJdW0NASF0oW0NIMl1bQ0gyXTQpW0NIMl1bT0hd

>  <s_glide_docking_method>  (1) 
confgen

>  <s_i_glide_gridfile>  (1) 
gpcr_drd2_6luq_protein_autoprepared_prepared

>  <s_lp_Force_Field>  (1) 
S-OPLS

>  <s_lp_Variant>  (1) 
DiffSBDD_49_num_sample_100-1

>  <s_m_source_file>  (1) 
generated__ligand_DiffSBDD_2026-05-06_prepared.sdf

>  <GenAI_Model>  (1) 
DiffSBDD

>  <Protein>  (1) 
generic_title2

$$$$
DiffSBDD_69_num_sample_100
     RDKit          3D

  0  0  0  0  0  0  0  0  0  0999 V3000
M  V30 BEGIN CTAB
M  V30 COUNTS 56 58 0 0 1
M  V30 BEGIN ATOM
M  V30 1 C 11.722717 9.157056 -9.511735 0
M  V30 2 C 6.673882 6.178414 -18.531204 0
M  V30 3 C 10.134966 8.419148 -6.942974 0
M  V30 4 C 6.986569 3.189211 -13.175650 0 CFG=2
M  V30 5 N 9.657332 6.326353 -12.388104 0
M  V30 6 O 10.057819 7.705222 -10.670002 0
M  V30 7 O 6.255519 0.916480 -13.275837 0
M  V30 8 N 7.485699 6.437109 -13.367976 0
M  V30 9 C 7.475423 7.625233 -12.531921 0 CFG=1
M  V30 10 C 4.985224 7.013014 -17.058134 0
M  V30 11 C 9.670728 8.132876 -8.382631 0
M  V30 12 C 5.609855 6.952805 -18.312523 0
M  V30 13 C 6.733782 1.866997 -13.887373 0
M  V30 14 C 6.203782 7.197713 -20.349734 0
M  V30 15 O 7.148305 6.241091 -19.778967 0
M  V30 16 C 10.764959 7.952264 -9.451030 0 CFG=2
M  V30 17 O 5.209515 7.649610 -19.381267 0
M  V30 18 C 5.500883 6.227385 -16.002430 0
M  V30 19 F 7.034657 1.760637 -15.194221 0
M  V30 20 C 6.637426 5.394220 -16.233698 0
M  V30 21 C 7.227861 5.376654 -17.518936 0
M  V30 22 C 11.251011 7.516124 -6.408558 0 CFG=1
M  V30 23 O 11.834673 6.969268 -11.890935 0
M  V30 24 O 11.434827 7.834201 -5.046527 0
M  V30 25 O 6.226961 7.755964 -11.891668 0
M  V30 26 C 6.456804 4.411370 -13.993437 0 CFG=1
M  V30 27 C 10.629547 6.997660 -11.671727 0
M  V30 28 O 6.316836 5.579211 -13.169863 0
M  V30 29 O 8.278800 3.325150 -13.001726 0 CHG=-1
M  V30 30 C 10.951619 6.025373 -6.509757 0
M  V30 31 C 8.262034 6.400761 -12.140361 0 CFG=2
M  V30 32 O 7.169098 4.606307 -15.228021 0
M  V30 33 H 12.386654 9.169276 -8.649581 0
M  V30 34 H 11.187403 10.101658 -9.491699 0
M  V30 35 H 12.364729 9.129020 -10.390161 0
M  V30 36 H 10.493240 9.440483 -6.868164 0
M  V30 37 H 9.260777 8.361890 -6.291122 0
M  V30 38 H 6.326328 3.150281 -12.306727 0
M  V30 39 H 9.978638 5.744493 -13.150618 0
M  V30 40 H 7.983905 8.541224 -12.824644 0
M  V30 41 H 4.126296 7.649116 -16.901369 0
M  V30 42 H 9.037826 7.244562 -8.374541 0
M  V30 43 H 9.021510 8.951237 -8.691770 0
M  V30 44 H 6.757052 8.063514 -20.717777 0
M  V30 45 H 5.691586 6.726711 -21.190128 0
M  V30 46 H 11.355677 7.065207 -9.216333 0
M  V30 47 H 5.034938 6.263889 -15.032615 0
M  V30 48 H 8.089398 4.756701 -17.717905 0
M  V30 49 H 12.178564 7.726541 -6.938700 0
M  V30 50 H 10.682954 7.517514 -4.569646 0
M  V30 51 H 6.405161 7.768818 -10.942107 0
M  V30 52 H 5.434540 4.151356 -14.257058 0
M  V30 53 H 10.811638 5.705109 -7.541582 0
M  V30 54 H 10.044340 5.769296 -5.963660 0
M  V30 55 H 11.777972 5.441358 -6.102650 0
M  V30 56 H 7.883101 5.801547 -11.312981 0
M  V30 END ATOM
M  V30 BEGIN BOND
M  V30 1 1 9 8
M  V30 2 1 11 3
M  V30 3 2 12 2
M  V30 4 1 12 10
M  V30 5 1 13 4
M  V30 6 2 13 7
M  V30 7 1 15 2
M  V30 8 1 15 14
M  V30 9 1 16 1
M  V30 10 1 16 6
M  V30 11 1 16 11
M  V30 12 1 17 12
M  V30 13 1 17 14
M  V30 14 2 18 10
M  V30 15 1 19 13
M  V30 16 1 20 18
M  V30 17 1 21 2
M  V30 18 2 21 20
M  V30 19 1 22 3
M  V30 20 1 24 22
M  V30 21 1 25 9
M  V30 22 1 26 4
M  V30 23 1 27 5
M  V30 24 1 27 6
M  V30 25 2 27 23
M  V30 26 1 28 8
M  V30 27 1 28 26
M  V30 28 1 29 4
M  V30 29 1 30 22
M  V30 30 1 31 5
M  V30 31 1 31 8
M  V30 32 1 31 9
M  V30 33 1 32 20
M  V30 34 1 32 26
M  V30 35 1 33 1
M  V30 36 1 34 1
M  V30 37 1 35 1
M  V30 38 1 36 3
M  V30 39 1 37 3
M  V30 40 1 4 38 CFG=1
M  V30 41 1 39 5
M  V30 42 1 9 40 CFG=3
M  V30 43 1 41 10
M  V30 44 1 42 11
M  V30 45 1 43 11
M  V30 46 1 44 14
M  V30 47 1 45 14
M  V30 48 1 16 46 CFG=1
M  V30 49 1 47 18
M  V30 50 1 48 21
M  V30 51 1 22 49 CFG=3
M  V30 52 1 50 24
M  V30 53 1 51 25
M  V30 54 1 26 52 CFG=3
M  V30 55 1 53 30
M  V30 56 1 54 30
M  V30 57 1 55 30
M  V30 58 1 31 56 CFG=1
M  V30 END BOND
M  V30 END CTAB
M  END
>  <i_epik_Tot_Q>  (1) 
-1

>  <i_epik_Tot_abs_Q>  (1) 
1

>  <i_i_glide_confnum>  (1) 
2781

>  <i_i_glide_lignum>  (1) 
139

>  <i_i_glide_posenum>  (1) 
157

>  <i_i_glide_rotatable_bonds>  (1) 
15

>  <i_lp_mmshare_version>  (1) 
72125

>  <i_m_source_file_index>  (1) 
70

>  <i_f3d_flags>  (1) 
0

>  <num_sample>  (1) 
100

>  <b_lp_Chiralities_Consistent>  (1) 
1

>  <r_epik_Charging_Adjusted_Penalty>  (1) 
0.75931899185534724

>  <r_epik_Ionization_Penalty>  (1) 
0.3796836148010711

>  <r_epik_Ionization_Penalty_Charging>  (1) 
0.37965949592767362

>  <r_epik_Ionization_Penalty_Neutral>  (1) 
2.4118873397482059e-05

>  <r_epik_State_Penalty>  (1) 
0.37965949592767362

>  <r_glide_ring_energy>  (1) 
0

>  <r_i_docking_score>  (1) 
-3.9768022942868133

>  <r_i_glide_ecoul>  (1) 
-6.1999889569759628

>  <r_i_glide_eff_state_penalty>  (1) 
0.37965949592767362

>  <r_i_glide_einternal>  (1) 
15.221865583373688

>  <r_i_glide_emodel>  (1) 
-46.34356175165388

>  <r_i_glide_emodel_strain>  (1) 
0.86982211275172006

>  <r_i_glide_energy>  (1) 
-43.366789634471679

>  <r_i_glide_erotb>  (1) 
1.0486485046790583

>  <r_i_glide_esite>  (1) 
-0.1180930981392872

>  <r_i_glide_evdw>  (1) 
-37.166800677495715

>  <r_i_glide_gscore>  (1) 
-4.3564617902144871

>  <r_i_glide_gscore_strain>  (1) 
0

>  <r_i_glide_hbond>  (1) 
-0.16

>  <r_i_glide_ligand_efficiency>  (1) 
-0.12427507169646292

>  <r_i_glide_ligand_efficiency_ln>  (1) 
-0.89051443722715806

>  <r_i_glide_ligand_efficiency_sa>  (1) 
-0.39454875908877735

>  <r_i_glide_lipo>  (1) 
-1.7845817809250324

>  <r_i_glide_metal>  (1) 
-0

>  <r_i_glide_rewards>  (1) 
-0.55409703840804647

>  <r_lp_Energy>  (1) 
45.431683

>  <r_lp_tautomer_probability>  (1) 
1

>  <s_epik_Chemistry_Notes>  (1) 
This compound has an ester and may undergo hydrolysis at high or low pH. This compound contains an acetal/aminal-like group ( X-CH(R)-Y where X, Y are N, S, or O) that may be acid/base labile, releasing an aldehyde. This compound has a N-S or N-O group and may undergo hydrolysis at high or low pH.

>  <s_epik_cmdline>  (1) 
J2VwaWtfcHl0aG9uJywgJy1waHQnLCAnMS4wJywgJy1waCcsICc3LjQnLCAnLXRuJywgJzgnLCAnLW1hJywgJzUwMCcsICctaW1hZScsICc8aW5maWxlLm1hZT4nLCAnLW9tYWUnLCAnPG91dGZpbGUubWFlPic=

>  <s_epik_input>  (1) 
W09IXVtDQEBIXShbQ0gzXSlbQ0gyXVtDSDJdW0NASF0oW0NIM10pT0MoPU8pW05IXVtDQEhdMVtDSF0oW09IXSlbTkBAXTFPW0NASF0oW0NAQEhdKEMoPU8pRilbT0hdKU9jKFtjSF0yKVtjSF1bY0hdYyhjMjMpT1tDSDJdTzM=

>  <s_glide_docking_method>  (1) 
confgen

>  <s_i_glide_gridfile>  (1) 
gpcr_drd2_6luq_protein_autoprepared_prepared

>  <s_lp_Force_Field>  (1) 
S-OPLS

>  <s_lp_Variant>  (1) 
DiffSBDD_69_num_sample_100-1

>  <s_m_source_file>  (1) 
generated__ligand_DiffSBDD_2026-05-06_prepared.sdf

>  <GenAI_Model>  (1) 
DiffSBDD

>  <Protein>  (1) 
generic_title2

$$$$
DiffSBDD_6_num_sample_100
     RDKit          3D

  0  0  0  0  0  0  0  0  0  0999 V3000
M  V30 BEGIN CTAB
M  V30 COUNTS 65 68 0 0 1
M  V30 BEGIN ATOM
M  V30 1 N 8.512098 5.476799 -10.713833 0
M  V30 2 N 7.058552 4.253979 -17.460095 0
M  V30 3 C 6.453606 5.161925 -18.368276 0
M  V30 4 C 5.307465 6.600810 -16.555544 0
M  V30 5 C 12.196387 8.557864 -9.464032 0
M  V30 6 N 8.277987 5.445786 -14.566871 0 CFG=1 CHG=1
M  V30 7 C 9.333717 6.055266 -9.699982 0
M  V30 8 F 5.893215 3.939790 -20.299250 0
M  V30 9 C 6.393167 3.326399 -12.857104 0
M  V30 10 C 7.227315 4.863154 -10.371811 0
M  V30 11 C 7.540666 5.923633 -15.737231 0 CFG=1
M  V30 12 F 11.834852 9.829509 -9.491764 0
M  V30 13 C 7.777995 5.585011 -13.156513 0 CFG=2
M  V30 14 C 7.130808 4.502969 -16.019552 0 CFG=2
M  V30 15 C 8.406864 4.144454 -15.238388 0
M  V30 16 F 13.262095 8.421378 -8.675740 0
M  V30 17 C 9.697260 7.236738 -6.831302 0
M  V30 18 C 9.001199 6.169354 -7.198109 0
M  V30 19 C 11.020268 7.787612 -8.933721 0
M  V30 20 C 8.922281 5.284859 -12.142958 0 CFG=1
M  V30 21 F 8.909164 3.182728 -18.272974 0
M  V30 22 C 9.282755 5.342506 -8.385959 0
M  V30 23 C 10.798038 7.827820 -7.578514 0
M  V30 24 C 6.461399 6.980223 -15.617570 0
M  V30 25 C 10.241264 5.914690 -12.638044 0
M  V30 26 F 6.601096 5.964119 -20.590309 0
M  V30 27 C 5.687387 6.228838 -17.991971 0
M  V30 28 C 6.439365 4.870678 -12.778512 0 CFG=2
M  V30 29 C 10.138385 7.113559 -9.919107 0
M  V30 30 C 6.730041 4.868981 -19.839668 0
M  V30 31 C 6.110422 5.296755 -11.337910 0
M  V30 32 C 7.644763 2.990680 -17.899695 0
M  V30 33 F 12.536101 8.169537 -10.690998 0
M  V30 34 H 4.614142 7.441960 -16.607206 0
M  V30 35 H 4.725009 5.780037 -16.139713 0
M  V30 36 H 5.490144 2.970383 -12.368904 0
M  V30 37 H 6.327967 2.929584 -13.865979 0
M  V30 38 H 7.240546 2.854635 -12.358836 0
M  V30 39 H 7.310700 3.780819 -10.314140 0
M  V30 40 H 6.930610 5.213409 -9.387330 0
M  V30 41 H 8.276869 6.169221 -16.503089 0
M  V30 42 H 7.601151 6.656165 -13.043252 0
M  V30 43 H 6.237707 4.221193 -15.487269 0
M  V30 44 H 9.306922 4.118153 -15.856368 0
M  V30 45 H 8.353480 3.268445 -14.597231 0
M  V30 46 H 9.429623 7.702189 -5.894012 0
M  V30 47 H 8.201201 5.824031 -6.562072 0
M  V30 48 H 9.107588 4.211096 -12.200042 0
M  V30 49 H 8.628880 4.474998 -8.359665 0
M  V30 50 H 10.275578 4.914869 -8.244585 0
M  V30 51 H 11.492443 8.422383 -7.002169 0
M  V30 52 H 6.847184 7.964012 -15.882442 0
M  V30 53 H 6.067141 7.087152 -14.610016 0
M  V30 54 H 10.593943 5.471041 -13.565636 0
M  V30 55 H 10.138748 6.976677 -12.839365 0
M  V30 56 H 11.041802 5.768673 -11.931740 0
M  V30 57 H 5.274488 6.867202 -18.760825 0
M  V30 58 H 5.638308 5.245092 -13.414371 0
M  V30 59 H 10.139626 7.530718 -10.901071 0
M  V30 60 H 7.747142 4.518699 -20.015541 0
M  V30 61 H 5.157426 4.876944 -11.011423 0
M  V30 62 H 5.984300 6.379563 -11.287804 0
M  V30 63 H 7.646847 2.255860 -17.093586 0
M  V30 64 H 7.104196 2.548808 -18.736943 0
M  V30 65 H 9.185426 5.890097 -14.571210 0
M  V30 END ATOM
M  V30 BEGIN BOND
M  V30 1 1 3 2
M  V30 2 1 7 1
M  V30 3 1 10 1
M  V30 4 1 11 6
M  V30 5 1 12 5
M  V30 6 1 13 6
M  V30 7 1 14 2
M  V30 8 1 14 11
M  V30 9 1 15 6
M  V30 10 1 15 14
M  V30 11 1 16 5
M  V30 12 2 18 17
M  V30 13 1 19 5
M  V30 14 1 20 1
M  V30 15 1 20 13
M  V30 16 1 22 7
M  V30 17 1 22 18
M  V30 18 1 23 17
M  V30 19 2 23 19
M  V30 20 1 24 4
M  V30 21 1 24 11
M  V30 22 1 25 20
M  V30 23 2 27 3
M  V30 24 1 27 4
M  V30 25 1 28 9
M  V30 26 1 28 13
M  V30 27 2 29 7
M  V30 28 1 29 19
M  V30 29 1 30 3
M  V30 30 1 30 8
M  V30 31 1 30 26
M  V30 32 1 31 10
M  V30 33 1 31 28
M  V30 34 1 32 2
M  V30 35 1 32 21
M  V30 36 1 33 5
M  V30 37 1 34 4
M  V30 38 1 35 4
M  V30 39 1 36 9
M  V30 40 1 37 9
M  V30 41 1 38 9
M  V30 42 1 39 10
M  V30 43 1 40 10
M  V30 44 1 11 41 CFG=3
M  V30 45 1 13 42 CFG=3
M  V30 46 1 14 43 CFG=1
M  V30 47 1 44 15
M  V30 48 1 45 15
M  V30 49 1 46 17
M  V30 50 1 47 18
M  V30 51 1 20 48 CFG=1
M  V30 52 1 49 22
M  V30 53 1 50 22
M  V30 54 1 51 23
M  V30 55 1 52 24
M  V30 56 1 53 24
M  V30 57 1 54 25
M  V30 58 1 55 25
M  V30 59 1 56 25
M  V30 60 1 57 27
M  V30 61 1 28 58 CFG=3
M  V30 62 1 59 29
M  V30 63 1 60 30
M  V30 64 1 61 31
M  V30 65 1 62 31
M  V30 66 1 63 32
M  V30 67 1 64 32
M  V30 68 1 6 65 CFG=1
M  V30 END BOND
M  V30 END CTAB
M  END
>  <i_epik_Tot_Q>  (1) 
1

>  <i_epik_Tot_abs_Q>  (1) 
1

>  <i_i_glide_confnum>  (1) 
26

>  <i_i_glide_lignum>  (1) 
11

>  <i_i_glide_posenum>  (1) 
365

>  <i_i_glide_rotatable_bonds>  (1) 
5

>  <i_lp_mmshare_version>  (1) 
72125

>  <i_m_source_file_index>  (1) 
7

>  <i_f3d_flags>  (1) 
0

>  <num_sample>  (1) 
100

>  <b_lp_Chiralities_Consistent>  (1) 
1

>  <r_epik_Charging_Adjusted_Penalty>  (1) 
2.2946868864184928

>  <r_epik_Ionization_Penalty>  (1) 
1.147343534253078

>  <r_epik_Ionization_Penalty_Charging>  (1) 
1.1473434712357071

>  <r_epik_Ionization_Penalty_Neutral>  (1) 
6.301737089438289e-08

>  <r_epik_State_Penalty>  (1) 
1.1473434151827855

>  <r_glide_ring_energy>  (1) 
0.067460085264342703

>  <r_i_docking_score>  (1) 
-3.9705756484430195

>  <r_i_glide_ecoul>  (1) 
-1.5894706570060491

>  <r_i_glide_eff_state_penalty>  (1) 
1.1473434151827855

>  <r_i_glide_einternal>  (1) 
22.893010724664308

>  <r_i_glide_emodel>  (1) 
-22.366611634720492

>  <r_i_glide_emodel_strain>  (1) 
2.4933396312327147

>  <r_i_glide_energy>  (1) 
-28.247081209241202

>  <r_i_glide_erotb>  (1) 
0.17835229215497114

>  <r_i_glide_esite>  (1) 
-0.054019653186135101

>  <r_i_glide_evdw>  (1) 
-26.657610552235152

>  <r_i_glide_gscore>  (1) 
-5.1179190636258047

>  <r_i_glide_gscore_strain>  (1) 
0

>  <r_i_glide_hbond>  (1) 
0

>  <r_i_glide_ligand_efficiency>  (1) 
-0.12032047419524301

>  <r_i_glide_ligand_efficiency_ln>  (1) 
-0.88303546567328928

>  <r_i_glide_ligand_efficiency_sa>  (1) 
-0.38593205158261895

>  <r_i_glide_lipo>  (1) 
-2.1772650873164578

>  <r_i_glide_metal>  (1) 
-0

>  <r_i_glide_rewards>  (1) 
-1.4936854891155174

>  <r_lp_Energy>  (1) 
67.908214999999998

>  <s_epik_Chemistry_Notes>  (1) 
This compound has an imine and may undergo hydrolysis.

>  <s_epik_cmdline>  (1) 
J2VwaWtfcHl0aG9uJywgJy1waHQnLCAnMS4wJywgJy1waCcsICc3LjQnLCAnLXRuJywgJzgnLCAnLW1hJywgJzUwMCcsICctaW1hZScsICc8aW5maWxlLm1hZT4nLCAnLW9tYWUnLCAnPG91dGZpbGUubWFlPic=

>  <s_epik_input>  (1) 
W0NIMl0xW0NIXT1bQ0hdW0NIXT1DKEMoRikoRilGKVtDSF09QzFOMltDSDJdW0NIMl1bQ0BIXShbQ0gzXSlbQ0BASF0oW0NASF0yW0NIM10pTjNbQ0gyXVtDQEBIXShbQ0BIXTM0KU4oW0NIMl1GKUMoW0NIXShGKUYpPVtDSF1bQ0gyXVtDSDJdNA==

>  <s_glide_docking_method>  (1) 
confgen

>  <s_i_glide_gridfile>  (1) 
gpcr_drd2_6luq_protein_autoprepared_prepared

>  <s_lp_Force_Field>  (1) 
S-OPLS

>  <s_lp_Variant>  (1) 
DiffSBDD_6_num_sample_100-3

>  <s_m_source_file>  (1) 
generated__ligand_DiffSBDD_2026-05-06_prepared.sdf

>  <GenAI_Model>  (1) 
DiffSBDD

>  <Protein>  (1) 
generic_title2

$$$$
DiffSBDD_80_num_sample_100
     RDKit          3D

  0  0  0  0  0  0  0  0  0  0999 V3000
M  V30 BEGIN CTAB
M  V30 COUNTS 57 60 0 0 1
M  V30 BEGIN ATOM
M  V30 1 C 12.213766 4.489107 -17.383676 0
M  V30 2 C 9.828812 5.849197 -20.386555 0
M  V30 3 O 10.850782 1.045600 -17.923993 0
M  V30 4 C 6.286655 7.581791 -20.290658 0
M  V30 5 C 11.980897 1.465108 -18.162033 0
M  V30 6 C 8.801713 7.825202 -21.613131 0
M  V30 7 C 12.218061 2.614185 -19.147579 0
M  V30 8 C 13.207079 0.857953 -17.492516 0
M  V30 9 C 9.884981 3.563810 -21.245130 0
M  V30 10 C 10.069306 4.062387 -18.827028 0 CFG=2
M  V30 11 C 7.829894 8.977498 -21.625213 0 CFG=2
M  V30 12 O 3.434847 12.569297 -22.295161 0 CHG=-1
M  V30 13 C 5.421445 9.414444 -21.638065 0
M  V30 14 C 9.368677 5.068918 -17.891697 0
M  V30 15 C 6.470231 8.602645 -21.141450 0
M  V30 16 C 3.053671 10.268227 -21.829632 0
M  V30 17 C 7.384607 6.693867 -19.870869 0
M  V30 18 F 2.339768 10.805963 -20.835671 0
M  V30 19 C 8.620046 6.774660 -20.546952 0
M  V30 20 C 13.745758 4.592398 -17.335320 0
M  V30 21 C 4.140682 9.369037 -21.236698 0
M  V30 22 C 5.842000 10.303217 -22.636941 0
M  V30 23 C 11.641152 4.003064 -18.743053 0 CFG=1
M  V30 24 O 9.720976 7.803544 -22.431252 0
M  V30 25 S 7.539281 10.123928 -23.091668 0
M  V30 26 N 9.548662 4.443682 -20.134163 0
M  V30 27 F 2.234647 9.475859 -22.514454 0
M  V30 28 C 7.038461 5.689035 -18.803663 0
M  V30 29 C 7.867159 4.974488 -17.987651 0
M  V30 30 C 5.023234 11.208838 -23.211236 0
M  V30 31 C 3.544967 11.386927 -22.844664 0 CFG=2
M  V30 32 H 11.835176 5.487018 -17.163624 0
M  V30 33 H 11.864116 3.849688 -16.573446 0
M  V30 34 H 10.376370 5.851938 -21.328625 0
M  V30 35 H 10.562210 6.313433 -19.728701 0
M  V30 36 H 5.292665 7.364912 -19.935702 0
M  V30 37 H 13.291843 2.706027 -19.306688 0
M  V30 38 H 11.816576 2.294952 -20.105779 0
M  V30 39 H 14.041172 0.803160 -18.191340 0
M  V30 40 H 12.986096 -0.149551 -17.140350 0
M  V30 41 H 13.505757 1.464243 -16.637889 0
M  V30 42 H 9.659914 2.526335 -20.996109 0
M  V30 43 H 10.937334 3.642318 -21.518248 0
M  V30 44 H 9.292388 3.831526 -22.120453 0
M  V30 45 H 9.660466 3.081069 -18.593076 0
M  V30 46 H 8.214664 9.663386 -20.876446 0
M  V30 47 H 9.589583 4.782379 -16.863160 0
M  V30 48 H 9.691106 6.109245 -17.925613 0
M  V30 49 H 14.070088 5.008093 -16.380825 0
M  V30 50 H 14.121080 5.244951 -18.124197 0
M  V30 51 H 14.226261 3.621040 -17.441973 0
M  V30 52 H 3.829129 8.680684 -20.469303 0
M  V30 53 H 12.043119 4.701103 -19.476899 0
M  V30 54 H 5.982979 5.509456 -18.659731 0
M  V30 55 H 7.412800 4.289189 -17.286741 0
M  V30 56 H 5.410681 11.864506 -23.972225 0
M  V30 57 H 3.038619 11.184107 -23.789254 0
M  V30 END ATOM
M  V30 BEGIN BOND
M  V30 1 2 5 3
M  V30 2 1 7 5
M  V30 3 1 8 5
M  V30 4 1 11 6
M  V30 5 1 14 10
M  V30 6 2 15 4
M  V30 7 1 15 11
M  V30 8 1 15 13
M  V30 9 1 17 4
M  V30 10 1 18 16
M  V30 11 1 19 2
M  V30 12 1 19 6
M  V30 13 2 19 17
M  V30 14 1 20 1
M  V30 15 2 21 13
M  V30 16 1 21 16
M  V30 17 1 22 13
M  V30 18 1 23 1
M  V30 19 1 23 7
M  V30 20 1 23 10
M  V30 21 2 24 6
M  V30 22 1 25 11
M  V30 23 1 25 22
M  V30 24 1 26 2
M  V30 25 1 26 9
M  V30 26 1 26 10
M  V30 27 1 27 16
M  V30 28 1 28 17
M  V30 29 1 29 14
M  V30 30 2 29 28
M  V30 31 2 30 22
M  V30 32 1 31 12
M  V30 33 1 31 16
M  V30 34 1 31 30
M  V30 35 1 32 1
M  V30 36 1 33 1
M  V30 37 1 34 2
M  V30 38 1 35 2
M  V30 39 1 36 4
M  V30 40 1 37 7
M  V30 41 1 38 7
M  V30 42 1 39 8
M  V30 43 1 40 8
M  V30 44 1 41 8
M  V30 45 1 42 9
M  V30 46 1 43 9
M  V30 47 1 44 9
M  V30 48 1 10 45 CFG=1
M  V30 49 1 11 46 CFG=1
M  V30 50 1 47 14
M  V30 51 1 48 14
M  V30 52 1 49 20
M  V30 53 1 50 20
M  V30 54 1 51 20
M  V30 55 1 52 21
M  V30 56 1 23 53 CFG=3
M  V30 57 1 54 28
M  V30 58 1 55 29
M  V30 59 1 56 30
M  V30 60 1 31 57 CFG=3
M  V30 END BOND
M  V30 END CTAB
M  END
>  <i_epik_Tot_Q>  (1) 
-1

>  <i_epik_Tot_abs_Q>  (1) 
1

>  <i_i_glide_confnum>  (1) 
7

>  <i_i_glide_lignum>  (1) 
165

>  <i_i_glide_posenum>  (1) 
66

>  <i_i_glide_rotatable_bonds>  (1) 
4

>  <i_lp_mmshare_version>  (1) 
72125

>  <i_m_source_file_index>  (1) 
81

>  <i_f3d_flags>  (1) 
0

>  <num_sample>  (1) 
100

>  <b_lp_Chiralities_Consistent>  (1) 
1

>  <r_epik_Charging_Adjusted_Penalty>  (1) 
8.7803366933407872e-06

>  <r_epik_Ionization_Penalty>  (1) 
0.00048743314384941063

>  <r_epik_Ionization_Penalty_Charging>  (1) 
8.7803366933407872e-06

>  <r_epik_Ionization_Penalty_Neutral>  (1) 
0.00047865280715606983

>  <r_epik_State_Penalty>  (1) 
-0

>  <r_glide_ring_energy>  (1) 
0

>  <r_i_docking_score>  (1) 
-3.9602880328651993

>  <r_i_glide_ecoul>  (1) 
-2.1908572157876001

>  <r_i_glide_eff_state_penalty>  (1) 
-0

>  <r_i_glide_einternal>  (1) 
3.251859972659477

>  <r_i_glide_emodel>  (1) 
-37.565324908143445

>  <r_i_glide_emodel_strain>  (1) 
0.013911618453306573

>  <r_i_glide_energy>  (1) 
-31.708879662903264

>  <r_i_glide_erotb>  (1) 
0.20077648214602295

>  <r_i_glide_esite>  (1) 
0

>  <r_i_glide_evdw>  (1) 
-29.518022447115666

>  <r_i_glide_gscore>  (1) 
-3.9602880328651993

>  <r_i_glide_gscore_strain>  (1) 
0

>  <r_i_glide_hbond>  (1) 
0

>  <r_i_glide_ligand_efficiency>  (1) 
-0.12775122686661933

>  <r_i_glide_ligand_efficiency_ln>  (1) 
-0.89316631966353388

>  <r_i_glide_ligand_efficiency_sa>  (1) 
-0.40131523239806155

>  <r_i_glide_lipo>  (1) 
-1.7480436578700156

>  <r_i_glide_metal>  (1) 
-0

>  <r_i_glide_rewards>  (1) 
-0.60849115241728335

>  <r_lp_Energy>  (1) 
61.855367999999999

>  <r_lp_tautomer_probability>  (1) 
1

>  <s_epik_cmdline>  (1) 
J2VwaWtfcHl0aG9uJywgJy1waHQnLCAnMS4wJywgJy1waCcsICc3LjQnLCAnLXRuJywgJzgnLCAnLW1hJywgJzUwMCcsICctaW1hZScsICc8aW5maWxlLm1hZT4nLCAnLW9tYWUnLCAnPG91dGZpbGUubWFlPic=

>  <s_epik_input>  (1) 
Tz1DKFtDSDNdKVtDSDJdW0NAQEhdKFtDSDJdW0NIM10pW0NAQEhdKFtDSDJdL1tDSF09W0NIXVwxKU4oW0NIM10pW0NIMl1DKEMyPU8pPUMxW0NIXT1DKFtDQEhdMjMpQz00QyhTMyk9W0NIXVtDQEhdKFtPSF0pQyhGKShGKVtDSF00

>  <s_glide_docking_method>  (1) 
confgen

>  <s_i_glide_gridfile>  (1) 
gpcr_drd2_6luq_protein_autoprepared_prepared

>  <s_lp_Force_Field>  (1) 
S-OPLS

>  <s_lp_Variant>  (1) 
DiffSBDD_80_num_sample_100-4

>  <s_m_source_file>  (1) 
generated__ligand_DiffSBDD_2026-05-06_prepared.sdf

>  <GenAI_Model>  (1) 
DiffSBDD

>  <Protein>  (1) 
generic_title2

$$$$
DiffSBDD_7_num_sample_100
     RDKit          3D

  0  0  0  0  0  0  0  0  0  0999 V3000
M  V30 BEGIN CTAB
M  V30 COUNTS 60 64 0 0 1
M  V30 BEGIN ATOM
M  V30 1 C 6.614556 7.369316 -14.185513 0 CFG=1
M  V30 2 C 6.466276 5.097176 -19.295274 0
M  V30 3 C 5.890971 5.776331 -20.389620 0
M  V30 4 O 7.161284 6.588187 -15.253662 0
M  V30 5 C 5.969228 4.133256 -12.470531 0 CFG=2
M  V30 6 C 7.795847 1.766120 -17.067056 0
M  V30 7 F 5.269715 5.760922 -22.668226 0
M  V30 8 C 8.065256 2.790297 -14.773430 0
M  V30 9 C 6.043259 1.235240 -14.246151 0 CFG=2
M  V30 10 C 6.193788 5.324053 -21.811091 0
M  V30 11 C 6.214708 7.600829 -15.627634 0 CFG=1
M  V30 12 C 5.067465 -0.624892 -15.776466 0
M  V30 13 F 7.382735 5.797696 -22.180429 0
M  V30 14 C 6.272652 6.475521 -11.937877 0 CFG=1
M  V30 15 C 5.784909 4.309104 -10.971001 0
M  V30 16 N 5.834826 6.476064 -13.342670 0
M  V30 17 C 5.428765 5.796968 -10.877029 0
M  V30 18 C 6.635997 0.312445 -13.158371 0
M  V30 19 O 5.834870 -0.208571 -12.350684 0
M  V30 20 C 5.955199 0.626721 -15.696012 0 CFG=2
M  V30 21 F 6.221119 3.992428 -21.874419 0
M  V30 22 O 7.873226 0.169304 -13.147798 0 CHG=-1
M  V30 23 C 5.034825 6.875545 -20.161376 0
M  V30 24 C 4.747300 7.285936 -18.844131 0
M  V30 25 C 4.999373 7.037439 -16.329823 0
M  V30 26 O 8.234807 -0.348654 -15.979438 0
M  V30 27 C 5.317155 6.601918 -17.751534 0
M  V30 28 C 6.662906 2.659262 -14.182895 0 CFG=1
M  V30 29 C 8.152156 2.797580 -16.284617 0
M  V30 30 C 6.180875 5.509781 -17.979929 0
M  V30 31 O 6.756041 3.019300 -12.805590 0
M  V30 32 C 6.672023 5.395176 -12.872427 0 CFG=2
M  V30 33 C 7.232567 0.452549 -16.552158 0 CFG=2
M  V30 34 H 7.348006 7.992212 -13.674841 0
M  V30 35 H 7.124124 4.257691 -19.465194 0
M  V30 36 H 4.981559 4.079257 -12.934767 0
M  V30 37 H 7.899239 1.855271 -18.138225 0
M  V30 38 H 8.634837 1.952695 -14.414535 0
M  V30 39 H 8.553660 3.693116 -14.409515 0
M  V30 40 H 5.018877 1.369180 -13.891705 0
M  V30 41 H 6.634867 8.484639 -16.099684 0
M  V30 42 H 5.624128 -1.513042 -15.491651 0
M  V30 43 H 4.196817 -0.540902 -15.126554 0
M  V30 44 H 4.701531 -0.788698 -16.790398 0
M  V30 45 H 6.962456 7.276082 -11.677616 0
M  V30 46 H 5.034850 3.651618 -10.538105 0
M  V30 47 H 6.727109 4.127453 -10.451518 0
M  V30 48 H 4.375310 5.980636 -11.063994 0
M  V30 49 H 5.657868 6.169302 -9.891610 0
M  V30 50 H 5.434839 1.369278 -16.291678 0
M  V30 51 H 4.594368 7.400309 -20.996083 0
M  V30 52 H 4.087154 8.123256 -18.673081 0
M  V30 53 H 4.634794 6.169313 -15.783386 0
M  V30 54 H 4.207212 7.786515 -16.322330 0
M  V30 55 H 7.835077 -1.049584 -15.474471 0
M  V30 56 H 6.041784 3.377378 -14.710303 0
M  V30 57 H 8.539573 3.697869 -16.737859 0
M  V30 58 H 6.619057 4.984980 -17.144396 0
M  V30 59 H 7.700831 5.383599 -13.227074 0
M  V30 60 H 6.934776 -0.079689 -17.456396 0
M  V30 END ATOM
M  V30 BEGIN BOND
M  V30 1 2 3 2
M  V30 2 1 4 1
M  V30 3 1 10 3
M  V30 4 1 10 7
M  V30 5 1 11 1
M  V30 6 1 11 4
M  V30 7 1 13 10
M  V30 8 1 15 5
M  V30 9 1 16 1
M  V30 10 1 16 14
M  V30 11 1 17 14
M  V30 12 1 17 15
M  V30 13 1 18 9
M  V30 14 2 19 18
M  V30 15 1 20 9
M  V30 16 1 20 12
M  V30 17 1 21 10
M  V30 18 1 22 18
M  V30 19 1 23 3
M  V30 20 2 24 23
M  V30 21 1 25 11
M  V30 22 1 27 24
M  V30 23 1 27 25
M  V30 24 1 28 8
M  V30 25 1 28 9
M  V30 26 2 29 6
M  V30 27 1 29 8
M  V30 28 1 30 2
M  V30 29 2 30 27
M  V30 30 1 31 5
M  V30 31 1 31 28
M  V30 32 1 32 5
M  V30 33 1 32 14
M  V30 34 1 32 16
M  V30 35 1 33 6
M  V30 36 1 33 20
M  V30 37 1 33 26
M  V30 38 1 1 34 CFG=1
M  V30 39 1 35 2
M  V30 40 1 5 36 CFG=3
M  V30 41 1 37 6
M  V30 42 1 38 8
M  V30 43 1 39 8
M  V30 44 1 9 40 CFG=1
M  V30 45 1 11 41 CFG=3
M  V30 46 1 42 12
M  V30 47 1 43 12
M  V30 48 1 44 12
M  V30 49 1 14 45 CFG=1
M  V30 50 1 46 15
M  V30 51 1 47 15
M  V30 52 1 48 17
M  V30 53 1 49 17
M  V30 54 1 20 50 CFG=3
M  V30 55 1 51 23
M  V30 56 1 52 24
M  V30 57 1 53 25
M  V30 58 1 54 25
M  V30 59 1 55 26
M  V30 60 1 28 56 CFG=3
M  V30 61 1 57 29
M  V30 62 1 58 30
M  V30 63 1 32 59 CFG=3
M  V30 64 1 33 60 CFG=3
M  V30 END BOND
M  V30 END CTAB
M  END
>  <i_epik_Tot_Q>  (1) 
-1

>  <i_epik_Tot_abs_Q>  (1) 
1

>  <i_i_glide_confnum>  (1) 
96

>  <i_i_glide_lignum>  (1) 
12

>  <i_i_glide_posenum>  (1) 
302

>  <i_i_glide_rotatable_bonds>  (1) 
8

>  <i_lp_mmshare_version>  (1) 
72125

>  <i_m_source_file_index>  (1) 
8

>  <i_f3d_flags>  (1) 
2

>  <num_sample>  (1) 
100

>  <b_lp_Chiralities_Consistent>  (1) 
0

>  <r_epik_Charging_Adjusted_Penalty>  (1) 
0.34130138700725487

>  <r_epik_Ionization_Penalty>  (1) 
0.34130148480546119

>  <r_epik_Ionization_Penalty_Charging>  (1) 
0.00038214034829849426

>  <r_epik_Ionization_Penalty_Neutral>  (1) 
0.34091934445716271

>  <r_epik_State_Penalty>  (1) 
0.3409192466589564

>  <r_glide_ring_energy>  (1) 
0.60616782339617148

>  <r_i_docking_score>  (1) 
-3.9565836995183603

>  <r_i_glide_ecoul>  (1) 
-0.81290062240676342

>  <r_i_glide_eff_state_penalty>  (1) 
0.3409192466589564

>  <r_i_glide_einternal>  (1) 
10.254570082178624

>  <r_i_glide_emodel>  (1) 
-32.877801735435426

>  <r_i_glide_emodel_strain>  (1) 
0.7181974491344647

>  <r_i_glide_energy>  (1) 
-29.934074618486591

>  <r_i_glide_erotb>  (1) 
0.46357030645473651

>  <r_i_glide_esite>  (1) 
0

>  <r_i_glide_evdw>  (1) 
-29.121173996079825

>  <r_i_glide_gscore>  (1) 
-4.2975029461773167

>  <r_i_glide_gscore_strain>  (1) 
0

>  <r_i_glide_hbond>  (1) 
-0.30167768286777569

>  <r_i_glide_ligand_efficiency>  (1) 
-0.11989647574298061

>  <r_i_glide_ligand_efficiency_ln>  (1) 
-0.87992372867887936

>  <r_i_glide_ligand_efficiency_sa>  (1) 
-0.3845720619911222

>  <r_i_glide_lipo>  (1) 
-2.1554478633250849

>  <r_i_glide_metal>  (1) 
-0

>  <r_i_glide_rewards>  (1) 
-0.72595391327418635

>  <r_lp_Energy>  (1) 
31.397698999999999

>  <s_epik_Chemistry_Notes>  (1) 
This compound contains an acetal/aminal-like group ( X-CH(R)-Y where X, Y are N, S, or O) that may be acid/base labile, releasing an aldehyde.

>  <s_epik_cmdline>  (1) 
J2VwaWtfcHl0aG9uJywgJy1waHQnLCAnMS4wJywgJy1waCcsICc3LjQnLCAnLXRuJywgJzgnLCAnLW1hJywgJzUwMCcsICctaW1hZScsICc8aW5maWxlLm1hZT4nLCAnLW9tYWUnLCAnPG91dGZpbGUubWFlPic=

>  <s_epik_input>  (1) 
RkMoRikoRiljMVtjSF1bY0hdYyhbY0hdW2NIXTEpW0NIMl1bQ0BASF0yT1tDSF0yTjNbQ0BASF0oW0NASF0zNClbQ0BIXShbQ0gyXVtDSDJdNClPW0NASF01W0NIMl1bQ0hdPVtDSF1bQ0BASF0oW09IXSlbQ0BASF0oW0NIM10pW0NASF01Qyg9TylbT0hd

>  <s_glide_docking_method>  (1) 
confgen

>  <s_i_glide_gridfile>  (1) 
gpcr_drd2_6luq_protein_autoprepared_prepared

>  <s_lp_Force_Field>  (1) 
S-OPLS

>  <s_lp_Variant>  (1) 
DiffSBDD_7_num_sample_100-1

>  <s_m_source_file>  (1) 
generated__ligand_DiffSBDD_2026-05-06_prepared.sdf

>  <GenAI_Model>  (1) 
DiffSBDD

>  <Protein>  (1) 
generic_title2

$$$$
DiffSBDD_15_num_sample_100
     RDKit          3D

  0  0  0  0  0  0  0  0  0  0999 V3000
M  V30 BEGIN CTAB
M  V30 COUNTS 48 51 0 0 1
M  V30 BEGIN ATOM
M  V30 1 C 7.702032 7.251903 -13.234324 0
M  V30 2 C 9.434822 4.544033 -9.952000 0
M  V30 3 C 9.031172 7.432683 -11.165068 0
M  V30 4 C 5.906671 5.394715 -18.568689 0
M  V30 5 C 7.089364 5.162926 -14.295860 0
M  V30 6 C 7.084506 6.566349 -14.295520 0
M  V30 7 C 9.227903 5.820405 -9.247552 0
M  V30 8 C 6.419288 7.358305 -15.380368 0
M  V30 9 C 6.804832 5.667745 -19.784066 0
M  V30 10 C 9.435779 7.112306 -9.932297 0
M  V30 11 C 10.159465 4.708224 -18.120040 0
M  V30 12 C 7.723396 4.452672 -13.267812 0
M  V30 13 C 8.160021 4.956089 -19.616828 0 CFG=2
M  V30 14 C 8.353745 6.568706 -12.178903 0
M  V30 15 C 9.036081 4.241405 -11.192568 0
M  V30 16 F 8.567724 4.717837 -21.901596 0
M  V30 17 C 8.802333 5.401667 -18.292143 0 CFG=1
M  V30 18 N 6.554453 5.792864 -17.320450 0
M  V30 19 C 11.035405 4.948323 -19.358578 0
M  V30 20 C 6.163399 6.970236 -16.665366 0
M  V30 21 F 9.323316 6.503655 -20.964202 0
M  V30 22 C 8.362706 5.117409 -12.194504 0
M  V30 23 O 10.355366 4.503818 -20.529394 0
M  V30 24 C 9.134165 5.193245 -20.792996 0
M  V30 25 C 7.862595 5.159137 -17.096962 0
M  V30 26 H 7.698752 8.331112 -13.235848 0
M  V30 27 H 9.902937 3.769332 -9.365739 0
M  V30 28 H 9.201011 8.450718 -11.482136 0
M  V30 29 H 5.673935 4.330937 -18.519461 0
M  V30 30 H 4.953742 5.913032 -18.681999 0
M  V30 31 H 6.593458 4.620213 -15.081546 0
M  V30 32 H 8.234823 5.814978 -8.796732 0
M  V30 33 H 9.926352 5.813178 -8.410230 0
M  V30 34 H 6.093647 8.344558 -15.091756 0
M  V30 35 H 6.307221 5.327435 -20.692582 0
M  V30 36 H 6.953085 6.743013 -19.893097 0
M  V30 37 H 9.905331 7.879441 -9.334778 0
M  V30 38 H 10.016573 3.636400 -17.975807 0
M  V30 39 H 10.665215 5.079406 -17.227626 0
M  V30 40 H 7.720905 3.372656 -13.295944 0
M  V30 41 H 7.970320 3.882816 -19.559154 0
M  V30 42 H 9.211696 3.228000 -11.525237 0
M  V30 43 H 8.984945 6.476652 -18.348962 0
M  V30 44 H 11.971177 4.396989 -19.265585 0
M  V30 45 H 11.298939 6.003101 -19.450852 0
M  V30 46 H 5.604203 7.628794 -17.314984 0
M  V30 47 H 8.394218 5.587398 -16.253058 0
M  V30 48 H 7.734340 4.090479 -16.920023 0
M  V30 END ATOM
M  V30 BEGIN BOND
M  V30 1 2 6 1
M  V30 2 1 6 5
M  V30 3 1 7 2
M  V30 4 1 8 6
M  V30 5 1 9 4
M  V30 6 2 10 3
M  V30 7 1 10 7
M  V30 8 2 12 5
M  V30 9 1 13 9
M  V30 10 1 14 1
M  V30 11 1 14 3
M  V30 12 2 15 2
M  V30 13 1 17 11
M  V30 14 1 17 13
M  V30 15 1 18 4
M  V30 16 1 19 11
M  V30 17 2 20 8
M  V30 18 1 20 18
M  V30 19 1 22 12
M  V30 20 2 22 14
M  V30 21 1 22 15
M  V30 22 1 23 19
M  V30 23 1 24 13
M  V30 24 1 24 16
M  V30 25 1 24 21
M  V30 26 1 24 23
M  V30 27 1 25 17
M  V30 28 1 25 18
M  V30 29 1 26 1
M  V30 30 1 27 2
M  V30 31 1 28 3
M  V30 32 1 29 4
M  V30 33 1 30 4
M  V30 34 1 31 5
M  V30 35 1 32 7
M  V30 36 1 33 7
M  V30 37 1 34 8
M  V30 38 1 35 9
M  V30 39 1 36 9
M  V30 40 1 37 10
M  V30 41 1 38 11
M  V30 42 1 39 11
M  V30 43 1 40 12
M  V30 44 1 13 41 CFG=1
M  V30 45 1 42 15
M  V30 46 1 17 43 CFG=3
M  V30 47 1 44 19
M  V30 48 1 45 19
M  V30 49 1 46 20
M  V30 50 1 47 25
M  V30 51 1 48 25
M  V30 END BOND
M  V30 END CTAB
M  END
>  <i_epik_Tot_Q>  (1) 
0

>  <i_epik_Tot_abs_Q>  (1) 
0

>  <i_i_glide_confnum>  (1) 
1

>  <i_i_glide_lignum>  (1) 
25

>  <i_i_glide_posenum>  (1) 
384

>  <i_i_glide_rotatable_bonds>  (1) 
2

>  <i_lp_mmshare_version>  (1) 
72125

>  <i_m_source_file_index>  (1) 
16

>  <i_f3d_flags>  (1) 
0

>  <num_sample>  (1) 
100

>  <b_lp_Chiralities_Consistent>  (1) 
1

>  <r_epik_Charging_Adjusted_Penalty>  (1) 
0.41067983895260396

>  <r_epik_Ionization_Penalty>  (1) 
0.00043588865487499098

>  <r_epik_Ionization_Penalty_Charging>  (1) 
0

>  <r_epik_Ionization_Penalty_Neutral>  (1) 
0.00043588865487499098

>  <r_epik_State_Penalty>  (1) 
0.41067983895260396

>  <r_glide_ring_energy>  (1) 
0

>  <r_i_docking_score>  (1) 
-3.9535835163494979

>  <r_i_glide_ecoul>  (1) 
0.23352326717431127

>  <r_i_glide_eff_state_penalty>  (1) 
0.41067983895260396

>  <r_i_glide_einternal>  (1) 
3.5413581159015095

>  <r_i_glide_emodel>  (1) 
-28.219867901629232

>  <r_i_glide_emodel_strain>  (1) 
0

>  <r_i_glide_energy>  (1) 
-23.682424166799819

>  <r_i_glide_erotb>  (1) 
0.32177656458331499

>  <r_i_glide_esite>  (1) 
0

>  <r_i_glide_evdw>  (1) 
-23.915947433974132

>  <r_i_glide_gscore>  (1) 
-4.3642633553021017

>  <r_i_glide_gscore_strain>  (1) 
0

>  <r_i_glide_hbond>  (1) 
0

>  <r_i_glide_ligand_efficiency>  (1) 
-0.15814334065397992

>  <r_i_glide_ligand_efficiency_ln>  (1) 
-0.93711777271212027

>  <r_i_glide_ligand_efficiency_sa>  (1) 
-0.46241393325247715

>  <r_i_glide_lipo>  (1) 
-1.6990088750990973

>  <r_i_glide_metal>  (1) 
-0

>  <r_i_glide_rewards>  (1) 
-1.8262621631637594

>  <r_lp_Energy>  (1) 
28.753394999999998

>  <r_lp_tautomer_probability>  (1) 
0.5

>  <s_epik_cmdline>  (1) 
J2VwaWtfcHl0aG9uJywgJy1waHQnLCAnMS4wJywgJy1waCcsICc3LjQnLCAnLXRuJywgJzgnLCAnLW1hJywgJzUwMCcsICctaW1hZScsICc8aW5maWxlLm1hZT4nLCAnLW9tYWUnLCAnPG91dGZpbGUubWFlPic=

>  <s_epik_input>  (1) 
W0NIXTE9W0NIXVtDSDJdW0NIXT1bQ0hdYyhjMTIpW2NIXVtjSF1jKFtjSF0yKS9bQ0hdPVtDSF1cTihbQ0gyXVtDSDJdMylbQ0gyXVtDQEhdKFtDQEBIXTM0KVtDSDJdW0NIMl1PQzQoRilG

>  <s_glide_docking_method>  (1) 
confgen

>  <s_i_glide_gridfile>  (1) 
gpcr_drd2_6luq_protein_autoprepared_prepared

>  <s_lp_Force_Field>  (1) 
S-OPLS

>  <s_lp_Variant>  (1) 
DiffSBDD_15_num_sample_100-2

>  <s_m_source_file>  (1) 
generated__ligand_DiffSBDD_2026-05-06_prepared.sdf

>  <GenAI_Model>  (1) 
DiffSBDD

>  <Protein>  (1) 
generic_title2

$$$$
DiffSBDD_7_num_sample_100
     RDKit          3D

  0  0  0  0  0  0  0  0  0  0999 V3000
M  V30 BEGIN CTAB
M  V30 COUNTS 60 64 0 0 1
M  V30 BEGIN ATOM
M  V30 1 C 7.134202 4.882171 -13.589580 0 CFG=1
M  V30 2 C 9.229665 5.910634 -7.961962 0
M  V30 3 C 9.964629 7.077873 -8.248276 0
M  V30 4 O 6.701853 3.770287 -12.805070 0
M  V30 5 C 8.571915 3.274698 -16.709494 0 CFG=2
M  V30 6 C 4.945972 -0.268787 -18.963495 0
M  V30 7 F 11.300984 8.900799 -7.521194 0
M  V30 8 C 6.078574 2.015391 -19.038923 0
M  V30 9 C 7.778402 0.413811 -17.771263 0 CFG=2
M  V30 10 C 10.435380 7.971086 -7.112368 0
M  V30 11 C 7.347885 4.839193 -12.091266 0 CFG=1
M  V30 12 C 7.372553 -2.185232 -17.894783 0
M  V30 13 F 9.383131 8.569258 -6.563579 0
M  V30 14 C 8.549822 5.372052 -15.460372 0 CFG=1
M  V30 15 C 9.797795 4.122679 -17.107490 0
M  V30 16 N 8.173292 4.371862 -14.474679 0
M  V30 17 C 9.930839 5.229189 -16.047234 0
M  V30 18 C 8.689283 0.202648 -19.004981 0
M  V30 19 O 8.132186 -0.055693 -20.094523 0
M  V30 20 C 6.888152 -0.812852 -17.364844 0 CFG=2
M  V30 21 F 11.034660 7.231051 -6.178753 0
M  V30 22 O 9.923875 0.300925 -18.821263 0 CHG=-1
M  V30 23 C 10.261743 7.410932 -9.588938 0
M  V30 24 C 9.834799 6.569301 -10.635488 0
M  V30 25 C 8.681927 4.468820 -11.466314 0
M  V30 26 O 4.635147 -1.705009 -17.091647 0
M  V30 27 C 9.111279 5.393564 -10.344486 0
M  V30 28 C 7.012890 1.778092 -17.819391 0 CFG=1
M  V30 29 C 5.248212 0.869781 -19.611694 0
M  V30 30 C 8.803195 5.070588 -9.006367 0
M  V30 31 O 7.915428 2.879402 -17.904985 0
M  V30 32 C 7.725792 4.193761 -15.852250 0 CFG=2
M  V30 33 C 5.366420 -0.588603 -17.548615 0 CFG=2
M  V30 34 H 6.332147 5.452754 -14.055886 0
M  V30 35 H 8.995264 5.660066 -6.938749 0
M  V30 36 H 8.888439 2.419344 -16.115550 0
M  V30 37 H 4.354182 -1.019135 -19.467469 0
M  V30 38 H 6.702386 2.336559 -19.874490 0
M  V30 39 H 5.415206 2.855896 -18.836029 0
M  V30 40 H 8.489540 0.483549 -16.949531 0
M  V30 41 H 6.659313 5.383986 -11.447034 0
M  V30 42 H 7.216253 -2.280301 -18.969185 0
M  V30 43 H 8.433460 -2.334219 -17.690440 0
M  V30 44 H 6.845148 -3.012160 -17.420158 0
M  V30 45 H 8.120805 6.351720 -15.258734 0
M  V30 46 H 10.701737 3.520270 -17.203455 0
M  V30 47 H 9.617875 4.589693 -18.076827 0
M  V30 48 H 10.634807 4.954662 -15.260875 0
M  V30 49 H 10.263527 6.169035 -16.488033 0
M  V30 50 H 7.014200 -0.891968 -16.284012 0
M  V30 51 H 10.820432 8.306976 -9.813681 0
M  V30 52 H 10.069776 6.820092 -11.659873 0
M  V30 53 H 8.634834 3.449348 -11.091667 0
M  V30 54 H 9.464721 4.460660 -12.224931 0
M  V30 55 H 4.989256 -1.997700 -16.263677 0
M  V30 56 H 6.432833 1.897524 -16.904276 0
M  V30 57 H 4.891180 1.004624 -20.622590 0
M  V30 58 H 8.244128 4.175556 -8.780287 0
M  V30 59 H 6.642322 4.222579 -15.946809 0
M  V30 60 H 5.034826 0.229366 -16.910742 0
M  V30 END ATOM
M  V30 BEGIN BOND
M  V30 1 2 3 2
M  V30 2 1 4 1
M  V30 3 1 10 3
M  V30 4 1 10 7
M  V30 5 1 11 1
M  V30 6 1 11 4
M  V30 7 1 13 10
M  V30 8 1 15 5
M  V30 9 1 16 1
M  V30 10 1 16 14
M  V30 11 1 17 14
M  V30 12 1 17 15
M  V30 13 1 18 9
M  V30 14 2 19 18
M  V30 15 1 20 9
M  V30 16 1 20 12
M  V30 17 1 21 10
M  V30 18 1 22 18
M  V30 19 1 23 3
M  V30 20 2 24 23
M  V30 21 1 25 11
M  V30 22 1 27 24
M  V30 23 1 27 25
M  V30 24 1 28 8
M  V30 25 1 28 9
M  V30 26 2 29 6
M  V30 27 1 29 8
M  V30 28 1 30 2
M  V30 29 2 30 27
M  V30 30 1 31 5
M  V30 31 1 31 28
M  V30 32 1 32 5
M  V30 33 1 32 14
M  V30 34 1 32 16
M  V30 35 1 33 6
M  V30 36 1 33 20
M  V30 37 1 33 26
M  V30 38 1 1 34 CFG=3
M  V30 39 1 35 2
M  V30 40 1 5 36 CFG=1
M  V30 41 1 37 6
M  V30 42 1 38 8
M  V30 43 1 39 8
M  V30 44 1 9 40 CFG=1
M  V30 45 1 11 41 CFG=1
M  V30 46 1 42 12
M  V30 47 1 43 12
M  V30 48 1 44 12
M  V30 49 1 14 45 CFG=1
M  V30 50 1 46 15
M  V30 51 1 47 15
M  V30 52 1 48 17
M  V30 53 1 49 17
M  V30 54 1 20 50 CFG=1
M  V30 55 1 51 23
M  V30 56 1 52 24
M  V30 57 1 53 25
M  V30 58 1 54 25
M  V30 59 1 55 26
M  V30 60 1 28 56 CFG=1
M  V30 61 1 57 29
M  V30 62 1 58 30
M  V30 63 1 32 59 CFG=1
M  V30 64 1 33 60 CFG=1
M  V30 END BOND
M  V30 END CTAB
M  END
>  <i_epik_Tot_Q>  (1) 
-1

>  <i_epik_Tot_abs_Q>  (1) 
1

>  <i_i_glide_confnum>  (1) 
215

>  <i_i_glide_lignum>  (1) 
12

>  <i_i_glide_posenum>  (1) 
308

>  <i_i_glide_rotatable_bonds>  (1) 
8

>  <i_lp_mmshare_version>  (1) 
72125

>  <i_m_source_file_index>  (1) 
8

>  <i_f3d_flags>  (1) 
2

>  <num_sample>  (1) 
100

>  <b_lp_Chiralities_Consistent>  (1) 
0

>  <r_epik_Charging_Adjusted_Penalty>  (1) 
0.34130138700725487

>  <r_epik_Ionization_Penalty>  (1) 
0.34130148480546119

>  <r_epik_Ionization_Penalty_Charging>  (1) 
0.00038214034829849426

>  <r_epik_Ionization_Penalty_Neutral>  (1) 
0.34091934445716271

>  <r_epik_State_Penalty>  (1) 
0.3409192466589564

>  <r_glide_ring_energy>  (1) 
2.1549545404665214

>  <r_i_docking_score>  (1) 
-3.9502172185813538

>  <r_i_glide_ecoul>  (1) 
0.0068418248159572981

>  <r_i_glide_eff_state_penalty>  (1) 
0.3409192466589564

>  <r_i_glide_einternal>  (1) 
14.997578326048941

>  <r_i_glide_emodel>  (1) 
-34.57566603628036

>  <r_i_glide_emodel_strain>  (1) 
0.78907265364576062

>  <r_i_glide_energy>  (1) 
-34.087338908268784

>  <r_i_glide_erotb>  (1) 
0.46357030645473651

>  <r_i_glide_esite>  (1) 
-0.043975371430709356

>  <r_i_glide_evdw>  (1) 
-34.094180733084741

>  <r_i_glide_gscore>  (1) 
-4.2911364652403101

>  <r_i_glide_gscore_strain>  (1) 
0

>  <r_i_glide_hbond>  (1) 
0

>  <r_i_glide_ligand_efficiency>  (1) 
-0.11970355207822284

>  <r_i_glide_ligand_efficiency_ln>  (1) 
-0.87850785628236328

>  <r_i_glide_ligand_efficiency_sa>  (1) 
-0.38395325271334307

>  <r_i_glide_lipo>  (1) 
-1.2269308341612486

>  <r_i_glide_metal>  (1) 
-0

>  <r_i_glide_rewards>  (1) 
-1.7801178031712455

>  <r_lp_Energy>  (1) 
31.397698999999999

>  <s_epik_Chemistry_Notes>  (1) 
This compound contains an acetal/aminal-like group ( X-CH(R)-Y where X, Y are N, S, or O) that may be acid/base labile, releasing an aldehyde.

>  <s_epik_cmdline>  (1) 
J2VwaWtfcHl0aG9uJywgJy1waHQnLCAnMS4wJywgJy1waCcsICc3LjQnLCAnLXRuJywgJzgnLCAnLW1hJywgJzUwMCcsICctaW1hZScsICc8aW5maWxlLm1hZT4nLCAnLW9tYWUnLCAnPG91dGZpbGUubWFlPic=

>  <s_epik_input>  (1) 
RkMoRikoRiljMVtjSF1bY0hdYyhbY0hdW2NIXTEpW0NIMl1bQ0BASF0yT1tDSF0yTjNbQ0BASF0oW0NASF0zNClbQ0BIXShbQ0gyXVtDSDJdNClPW0NASF01W0NIMl1bQ0hdPVtDSF1bQ0BASF0oW09IXSlbQ0BASF0oW0NIM10pW0NASF01Qyg9TylbT0hd

>  <s_glide_docking_method>  (1) 
confgen

>  <s_i_glide_gridfile>  (1) 
gpcr_drd2_6luq_protein_autoprepared_prepared

>  <s_lp_Force_Field>  (1) 
S-OPLS

>  <s_lp_Variant>  (1) 
DiffSBDD_7_num_sample_100-1

>  <s_m_source_file>  (1) 
generated__ligand_DiffSBDD_2026-05-06_prepared.sdf

>  <GenAI_Model>  (1) 
DiffSBDD

>  <Protein>  (1) 
generic_title2

$$$$
DiffSBDD_44_num_sample_100
     RDKit          3D

  0  0  0  0  0  0  0  0  0  0999 V3000
M  V30 BEGIN CTAB
M  V30 COUNTS 56 58 0 0 1
M  V30 BEGIN ATOM
M  V30 1 C 9.058658 5.144949 -17.995772 0
M  V30 2 C 7.659392 4.538308 -17.733718 0 CFG=1
M  V30 3 C 10.195739 6.320509 -6.844579 0
M  V30 4 C 11.301198 8.811155 -6.127233 0
M  V30 5 C 10.923343 8.569713 -7.459569 0
M  V30 6 C 7.947896 5.645903 -13.350130 0
M  V30 7 C 6.575009 5.385657 -18.403101 0
M  V30 8 N 7.434789 3.229421 -18.427864 0 CFG=1 CHG=1
M  V30 9 C 7.879086 5.628925 -11.814060 0
M  V30 10 C 9.434752 6.002947 -9.748013 0
M  V30 11 O 9.125985 4.995225 -9.117346 0
M  V30 12 C 11.138893 7.810665 -5.158437 0
M  V30 13 N 11.836275 10.045178 -5.768803 0
M  V30 14 C 5.854626 4.729624 -19.550710 0
M  V30 15 N 9.979518 7.118948 -9.233315 0
M  V30 16 C 6.654084 5.258098 -14.074287 0
M  V30 17 O 7.768771 3.254249 -15.689588 0
M  V30 18 C 9.566206 7.580353 -11.495650 0
M  V30 19 C 6.637190 3.419903 -19.672549 0
M  V30 20 N 6.877384 5.326251 -15.516875 0
M  V30 21 C 8.613639 2.346111 -18.616147 0
M  V30 22 C 9.237172 6.079067 -11.248158 0 CFG=2
M  V30 23 C 10.188392 8.169860 -10.202751 0
M  V30 24 C 10.361501 7.325776 -7.833804 0
M  V30 25 C 7.434864 4.317630 -16.212735 0
M  V30 26 C 10.591406 6.569340 -5.514939 0
M  V30 27 O 6.314111 6.532377 -18.038748 0
M  V30 28 H 9.122713 6.168974 -17.625071 0
M  V30 29 H 9.848914 4.578698 -17.500630 0
M  V30 30 H 9.290547 5.180130 -19.060944 0
M  V30 31 H 9.777838 5.369273 -7.083685 0
M  V30 32 H 11.062057 9.345557 -8.194584 0
M  V30 33 H 8.233556 6.642432 -13.686206 0
M  V30 34 H 8.752907 4.980118 -13.667614 0
M  V30 35 H 7.641200 4.622886 -11.465799 0
M  V30 36 H 7.081663 6.283050 -11.457347 0
M  V30 37 H 11.434496 7.994527 -4.136273 0
M  V30 38 H 11.987033 10.276831 -4.798211 0
M  V30 39 H 11.832425 10.816709 -6.419524 0
M  V30 40 H 4.811527 4.559342 -19.291614 0
M  V30 41 H 5.905169 5.332566 -20.457559 0
M  V30 42 H 6.320637 4.263979 -13.771995 0
M  V30 43 H 5.853535 5.950150 -13.809463 0
M  V30 44 H 10.234559 7.703783 -12.347155 0
M  V30 45 H 8.654470 8.133022 -11.727136 0
M  V30 46 H 5.974673 2.568669 -19.835802 0
M  V30 47 H 7.303312 3.483758 -20.535060 0
M  V30 48 H 6.618614 6.178285 -15.999624 0
M  V30 49 H 9.313905 2.756368 -19.344660 0
M  V30 50 H 9.147160 2.188457 -17.678452 0
M  V30 51 H 8.293381 1.367575 -18.976114 0
M  V30 52 H 10.027495 5.463743 -11.681003 0
M  V30 53 H 9.649731 9.064855 -9.891670 0
M  V30 54 H 11.249418 8.390616 -10.325978 0
M  V30 55 H 10.467453 5.801963 -4.764920 0
M  V30 56 H 6.828195 2.731939 -17.788369 0
M  V30 END ATOM
M  V30 BEGIN BOND
M  V30 1 1 2 1 CFG=1
M  V30 2 2 5 4
M  V30 3 1 7 2
M  V30 4 1 8 2
M  V30 5 1 9 6
M  V30 6 2 11 10
M  V30 7 1 12 4
M  V30 8 1 13 4
M  V30 9 1 14 7
M  V30 10 1 15 10
M  V30 11 1 16 6
M  V30 12 1 19 8
M  V30 13 1 19 14
M  V30 14 1 20 16
M  V30 15 1 21 8
M  V30 16 1 22 9
M  V30 17 1 22 10
M  V30 18 1 22 18
M  V30 19 1 23 15
M  V30 20 1 23 18
M  V30 21 2 24 3
M  V30 22 1 24 5
M  V30 23 1 24 15
M  V30 24 1 25 2
M  V30 25 2 25 17
M  V30 26 1 25 20
M  V30 27 1 26 3
M  V30 28 2 26 12
M  V30 29 2 27 7
M  V30 30 1 28 1
M  V30 31 1 29 1
M  V30 32 1 30 1
M  V30 33 1 31 3
M  V30 34 1 32 5
M  V30 35 1 33 6
M  V30 36 1 34 6
M  V30 37 1 35 9
M  V30 38 1 36 9
M  V30 39 1 37 12
M  V30 40 1 38 13
M  V30 41 1 39 13
M  V30 42 1 40 14
M  V30 43 1 41 14
M  V30 44 1 42 16
M  V30 45 1 43 16
M  V30 46 1 44 18
M  V30 47 1 45 18
M  V30 48 1 46 19
M  V30 49 1 47 19
M  V30 50 1 48 20
M  V30 51 1 49 21
M  V30 52 1 50 21
M  V30 53 1 51 21
M  V30 54 1 22 52 CFG=3
M  V30 55 1 53 23
M  V30 56 1 54 23
M  V30 57 1 55 26
M  V30 58 1 8 56 CFG=1
M  V30 END BOND
M  V30 END CTAB
M  END
>  <i_epik_Tot_Q>  (1) 
1

>  <i_epik_Tot_abs_Q>  (1) 
1

>  <i_i_glide_confnum>  (1) 
64

>  <i_i_glide_lignum>  (1) 
81

>  <i_i_glide_posenum>  (1) 
323

>  <i_i_glide_rotatable_bonds>  (1) 
7

>  <i_lp_mmshare_version>  (1) 
72125

>  <i_m_source_file_index>  (1) 
45

>  <i_f3d_flags>  (1) 
0

>  <num_sample>  (1) 
100

>  <b_lp_Chiralities_Consistent>  (1) 
1

>  <r_epik_Charging_Adjusted_Penalty>  (1) 
0.87787264938008924

>  <r_epik_Ionization_Penalty>  (1) 
0.44040452980928141

>  <r_epik_Ionization_Penalty_Charging>  (1) 
0.43893632469004462

>  <r_epik_Ionization_Penalty_Neutral>  (1) 
0.0014682051192367804

>  <r_epik_State_Penalty>  (1) 
0.43893632469004457

>  <r_glide_ring_energy>  (1) 
0

>  <r_i_docking_score>  (1) 
-3.9495212216243045

>  <r_i_glide_ecoul>  (1) 
-0.61994928095616819

>  <r_i_glide_eff_state_penalty>  (1) 
0.43893632469004457

>  <r_i_glide_einternal>  (1) 
5.4601434482556463

>  <r_i_glide_emodel>  (1) 
-40.182186754095639

>  <r_i_glide_emodel_strain>  (1) 
0.51455544779427953

>  <r_i_glide_energy>  (1) 
-34.220859670904936

>  <r_i_glide_erotb>  (1) 
0.96983297192060391

>  <r_i_glide_esite>  (1) 
-0.15883260610468389

>  <r_i_glide_evdw>  (1) 
-33.600910389948766

>  <r_i_glide_gscore>  (1) 
-4.3884575463143491

>  <r_i_glide_gscore_strain>  (1) 
0

>  <r_i_glide_hbond>  (1) 
0

>  <r_i_glide_ligand_efficiency>  (1) 
-0.14627856376386314

>  <r_i_glide_ligand_efficiency_ln>  (1) 
-0.91938342744794643

>  <r_i_glide_ligand_efficiency_sa>  (1) 
-0.4388356912915895

>  <r_i_glide_lipo>  (1) 
-1.5828324556295716

>  <r_i_glide_metal>  (1) 
-0

>  <r_i_glide_rewards>  (1) 
-1.8435875448598342

>  <r_lp_Energy>  (1) 
28.974819999999998

>  <r_lp_tautomer_probability>  (1) 
0.99995000000000001

>  <s_epik_cmdline>  (1) 
J2VwaWtfcHl0aG9uJywgJy1waHQnLCAnMS4wJywgJy1waCcsICc3LjQnLCAnLXRuJywgJzgnLCAnLW1hJywgJzUwMCcsICctaW1hZScsICc8aW5maWxlLm1hZT4nLCAnLW9tYWUnLCAnPG91dGZpbGUubWFlPic=

>  <s_epik_input>  (1) 
W0NIM11OMVtDSDJdW0NIMl1DKD1PKVtDQEBdMShbQ0gzXSlDKD1PKVtOSF1bQ0gyXVtDSDJdW0NIMl1bQ0BASF0yW0NIMl1bQ0gyXU4oQzI9TyljKFtjSF1bY0hdW2NIXTMpW2NIXWMzW05IMl0=

>  <s_glide_docking_method>  (1) 
confgen

>  <s_i_glide_gridfile>  (1) 
gpcr_drd2_6luq_protein_autoprepared_prepared

>  <s_lp_Force_Field>  (1) 
S-OPLS

>  <s_lp_Variant>  (1) 
DiffSBDD_44_num_sample_100-6

>  <s_m_source_file>  (1) 
generated__ligand_DiffSBDD_2026-05-06_prepared.sdf

>  <GenAI_Model>  (1) 
DiffSBDD

>  <Protein>  (1) 
generic_title2

$$$$
DiffSBDD_66_num_sample_100
     RDKit          3D

  0  0  0  0  0  0  0  0  0  0999 V3000
M  V30 BEGIN CTAB
M  V30 COUNTS 88 91 0 0 1
M  V30 BEGIN ATOM
M  V30 1 C 10.184232 5.541741 -16.682751 0
M  V30 2 F 10.634118 5.832991 -7.664287 0
M  V30 3 C 7.691583 5.593167 -16.174358 0 CFG=1
M  V30 4 N 8.482251 3.644377 -18.373284 0
M  V30 5 C 9.830294 1.658509 -18.831523 0
M  V30 6 F 5.881351 5.832124 -17.708690 0
M  V30 7 O 8.861208 8.569325 -6.691055 0
M  V30 8 N 11.555190 3.255745 -18.243300 0
M  V30 9 O 9.239293 4.569216 -8.839882 0
M  V30 10 C 7.698152 4.733940 -18.752648 0
M  V30 11 O 11.947445 1.088694 -17.919965 0
M  V30 12 C 6.564451 5.328301 -15.136380 0
M  V30 13 C 13.128588 1.845024 -17.504381 0
M  V30 14 C 6.955506 4.956159 -13.712717 0
M  V30 15 O 8.423972 -0.209141 -18.101418 0
M  V30 16 C 8.904747 2.704383 -19.342483 0
M  V30 17 O 7.384989 4.965039 -19.922681 0
M  V30 18 C 9.430516 0.194647 -19.006393 0
M  V30 19 C 6.789227 3.472407 -13.348363 0
M  V30 20 C 9.845576 8.459400 -7.410708 0
M  V30 21 C 12.879007 3.376256 -17.752760 0
M  V30 22 O 6.632877 0.907493 -14.955934 0
M  V30 23 C 8.693581 6.741009 -10.809113 0
M  V30 24 C 12.348438 9.869568 -5.294112 0
M  V30 25 C 9.973410 5.727826 -8.841433 0 CFG=1
M  V30 26 O 8.520140 2.738497 -20.513483 0
M  V30 27 C 8.965614 4.756532 -16.146210 0 CFG=1
M  V30 28 N 11.102333 8.529529 -6.941682 0
M  V30 29 C 6.486187 5.498405 -10.503609 0 CFG=2
M  V30 30 C 7.568833 2.537328 -16.408966 0
M  V30 31 C 7.941536 2.553040 -13.792986 0 CFG=1
M  V30 32 O 5.357277 4.846046 -11.093354 0
M  V30 33 C 8.325309 1.583914 -12.692853 0
M  V30 34 C 7.373323 5.894074 -12.824064 0
M  V30 35 C 9.057167 6.826407 -9.260862 0 CFG=1
M  V30 36 C 8.741824 3.421878 -16.908324 0 CFG=1
M  V30 37 C 7.209837 5.719262 -17.641488 0 CFG=2
M  V30 38 C 11.052133 2.016941 -18.345364 0
M  V30 39 C 11.401745 8.695745 -5.523105 0
M  V30 40 C 5.186181 6.225922 -10.753509 0
M  V30 41 C 7.741312 5.623378 -11.359070 0 CFG=1
M  V30 42 C 7.752336 1.756247 -15.104729 0 CFG=1
M  V30 43 C 9.680517 8.214854 -8.919308 0
M  V30 44 H 10.197424 5.636647 -17.766932 0
M  V30 45 H 10.238022 6.550376 -16.291950 0
M  V30 46 H 11.104475 5.060708 -16.363813 0
M  V30 47 H 7.973099 6.569073 -15.813097 0
M  V30 48 H 11.052933 4.073163 -18.558662 0
M  V30 49 H 9.335067 4.156607 -9.684571 0
M  V30 50 H 5.975964 6.242388 -15.053579 0
M  V30 51 H 5.834820 4.622762 -15.482896 0
M  V30 52 H 13.325296 1.662659 -16.447495 0
M  V30 53 H 14.000399 1.498543 -18.059352 0
M  V30 54 H 7.580080 -0.100090 -18.515506 0
M  V30 55 H 10.292021 -0.454550 -18.846999 0
M  V30 56 H 9.095762 0.011729 -20.028837 0
M  V30 57 H 6.693570 3.361171 -12.274586 0
M  V30 58 H 5.832937 3.113270 -13.725408 0
M  V30 59 H 12.935408 3.959873 -16.834235 0
M  V30 60 H 13.547296 3.792868 -18.505382 0
M  V30 61 H 6.652006 0.248345 -15.633292 0
M  V30 62 H 9.615893 6.711044 -11.390828 0
M  V30 63 H 8.237252 7.691185 -11.092906 0
M  V30 64 H 12.633793 9.921853 -4.242764 0
M  V30 65 H 13.263667 9.773292 -5.881210 0
M  V30 66 H 11.862065 10.810742 -5.556623 0
M  V30 67 H 10.634747 5.769228 -9.656122 0
M  V30 68 H 9.238382 4.604449 -15.114732 0
M  V30 69 H 11.875882 8.425406 -7.580315 0
M  V30 70 H 6.681181 5.179332 -9.491852 0
M  V30 71 H 7.374694 1.789476 -17.170432 0
M  V30 72 H 6.634972 3.064819 -16.416282 0
M  V30 73 H 8.813393 3.180503 -13.833680 0
M  V30 74 H 7.472013 1.019238 -12.314755 0
M  V30 75 H 9.076915 0.874536 -13.038954 0
M  V30 76 H 8.769984 2.169324 -11.891742 0
M  V30 77 H 7.444706 6.922459 -13.147065 0
M  V30 78 H 8.234787 6.576662 -8.603424 0
M  V30 79 H 9.622058 2.854749 -16.656093 0
M  V30 80 H 7.551856 6.690422 -17.996472 0
M  V30 81 H 10.508736 8.854059 -4.925901 0
M  V30 82 H 11.834642 7.769952 -5.148211 0
M  V30 83 H 4.511853 6.401729 -9.918572 0
M  V30 84 H 5.106885 6.906781 -11.598990 0
M  V30 85 H 8.261170 4.668961 -11.306317 0
M  V30 86 H 8.618899 1.108571 -15.248517 0
M  V30 87 H 10.637813 8.334753 -9.431268 0
M  V30 88 H 9.035338 9.004538 -9.301111 0
M  V30 END ATOM
M  V30 BEGIN BOND
M  V30 1 1 10 4
M  V30 2 1 12 3
M  V30 3 1 13 11
M  V30 4 1 14 12
M  V30 5 1 16 4
M  V30 6 1 16 5
M  V30 7 2 17 10
M  V30 8 1 18 5
M  V30 9 1 18 15
M  V30 10 1 19 14
M  V30 11 2 20 7
M  V30 12 1 21 8
M  V30 13 1 21 13
M  V30 14 1 25 2
M  V30 15 1 25 9
M  V30 16 2 26 16
M  V30 17 1 27 1
M  V30 18 1 27 3
M  V30 19 1 28 20
M  V30 20 1 31 19
M  V30 21 1 32 29
M  V30 22 1 33 31
M  V30 23 2 34 14
M  V30 24 1 35 23
M  V30 25 1 35 25
M  V30 26 1 36 4
M  V30 27 1 36 27
M  V30 28 1 36 30
M  V30 29 1 37 3
M  V30 30 1 37 6
M  V30 31 1 37 10
M  V30 32 2 38 5
M  V30 33 1 38 8
M  V30 34 1 38 11
M  V30 35 1 39 24
M  V30 36 1 39 28
M  V30 37 1 40 29
M  V30 38 1 40 32
M  V30 39 1 41 23
M  V30 40 1 41 29
M  V30 41 1 41 34
M  V30 42 1 42 22
M  V30 43 1 42 30
M  V30 44 1 42 31
M  V30 45 1 43 20
M  V30 46 1 43 35
M  V30 47 1 44 1
M  V30 48 1 45 1
M  V30 49 1 46 1
M  V30 50 1 3 47 CFG=1
M  V30 51 1 48 8
M  V30 52 1 49 9
M  V30 53 1 50 12
M  V30 54 1 51 12
M  V30 55 1 52 13
M  V30 56 1 53 13
M  V30 57 1 54 15
M  V30 58 1 55 18
M  V30 59 1 56 18
M  V30 60 1 57 19
M  V30 61 1 58 19
M  V30 62 1 59 21
M  V30 63 1 60 21
M  V30 64 1 61 22
M  V30 65 1 62 23
M  V30 66 1 63 23
M  V30 67 1 64 24
M  V30 68 1 65 24
M  V30 69 1 66 24
M  V30 70 1 25 67 CFG=3
M  V30 71 1 27 68 CFG=1
M  V30 72 1 69 28
M  V30 73 1 29 70 CFG=1
M  V30 74 1 71 30
M  V30 75 1 72 30
M  V30 76 1 31 73 CFG=3
M  V30 77 1 74 33
M  V30 78 1 75 33
M  V30 79 1 76 33
M  V30 80 1 77 34
M  V30 81 1 35 78 CFG=1
M  V30 82 1 36 79 CFG=3
M  V30 83 1 37 80 CFG=3
M  V30 84 1 81 39
M  V30 85 1 82 39
M  V30 86 1 83 40
M  V30 87 1 84 40
M  V30 88 1 41 85 CFG=3
M  V30 89 1 42 86 CFG=3
M  V30 90 1 87 43
M  V30 91 1 88 43
M  V30 END BOND
M  V30 END CTAB
M  END
>  <i_epik_Tot_Q>  (1) 
0

>  <i_epik_Tot_abs_Q>  (1) 
0

>  <i_i_glide_confnum>  (1) 
609

>  <i_i_glide_lignum>  (1) 
131

>  <i_i_glide_posenum>  (1) 
178

>  <i_i_glide_rotatable_bonds>  (1) 
15

>  <i_lp_mmshare_version>  (1) 
72125

>  <i_m_source_file_index>  (1) 
67

>  <i_f3d_flags>  (1) 
0

>  <num_sample>  (1) 
100

>  <b_lp_Chiralities_Consistent>  (1) 
1

>  <r_epik_Charging_Adjusted_Penalty>  (1) 
0.011224841026204068

>  <r_epik_Ionization_Penalty>  (1) 
0.011270599783865109

>  <r_epik_Ionization_Penalty_Charging>  (1) 
8.5422756824624084e-11

>  <r_epik_Ionization_Penalty_Neutral>  (1) 
0.011270599698442352

>  <r_epik_State_Penalty>  (1) 
0.01122484094078131

>  <r_glide_ring_energy>  (1) 
0

>  <r_i_docking_score>  (1) 
-3.9475293051247577

>  <r_i_glide_ecoul>  (1) 
-1.2920914543052184

>  <r_i_glide_eff_state_penalty>  (1) 
0.01122484094078131

>  <r_i_glide_einternal>  (1) 
12.366397704807767

>  <r_i_glide_emodel>  (1) 
-25.328927767601932

>  <r_i_glide_emodel_strain>  (1) 
2.7342120028052648

>  <r_i_glide_energy>  (1) 
-25.171846362979405

>  <r_i_glide_erotb>  (1) 
0.43215163049877869

>  <r_i_glide_esite>  (1) 
-0.028909255279684166

>  <r_i_glide_evdw>  (1) 
-23.879754908674187

>  <r_i_glide_gscore>  (1) 
-3.9587541460655391

>  <r_i_glide_gscore_strain>  (1) 
0

>  <r_i_glide_hbond>  (1) 
0

>  <r_i_glide_ligand_efficiency>  (1) 
-0.091803007095924594

>  <r_i_glide_ligand_efficiency_ln>  (1) 
-0.8291038413010966

>  <r_i_glide_ligand_efficiency_sa>  (1) 
-0.32162247699753099

>  <r_i_glide_lipo>  (1) 
-2.1278885798623604

>  <r_i_glide_metal>  (1) 
-0

>  <r_i_glide_rewards>  (1) 
-0.84630647784278112

>  <r_lp_Energy>  (1) 
48.107619999999997

>  <r_lp_tautomer_probability>  (1) 
0.49997499999946832

>  <s_epik_Chemistry_Notes>  (1) 
This compound has an imine and may undergo hydrolysis.

>  <s_epik_cmdline>  (1) 
J2VwaWtfcHl0aG9uJywgJy1waHQnLCAnMS4wJywgJy1waCcsICc3LjQnLCAnLXRuJywgJzgnLCAnLW1hJywgJzUwMCcsICctaW1hZScsICc8aW5maWxlLm1hZT4nLCAnLW9tYWUnLCAnPG91dGZpbGUubWFlPic=

>  <s_epik_input>  (1) 
TzFbQ0gyXVtDSDJdTj1DMVtDQEhdKFtDSDJdW09IXSlDKD1PKU4oQyg9TylbQ0BIXTJGKVtDQEBIXShbQ0BASF0zW0NIM10pW0NIMl1bQ0BIXShbT0hdKVtDQEhdKFtDSDNdKVtDSDJdQyhcW0NIMl1bQ0BIXTIzKT1bQ0hdL1tDQEhdKFtDQEBIXTRPW0NIMl00KVtDSDJdW0NAQEhdKFtDQEBIXShGKVtPSF0pW0NIMl1DKD1PKVtOSF1bQ0gyXVtDSDNd

>  <s_glide_docking_method>  (1) 
confgen

>  <s_i_glide_gridfile>  (1) 
gpcr_drd2_6luq_protein_autoprepared_prepared

>  <s_lp_Force_Field>  (1) 
S-OPLS

>  <s_lp_Variant>  (1) 
DiffSBDD_66_num_sample_100-3

>  <s_m_source_file>  (1) 
generated__ligand_DiffSBDD_2026-05-06_prepared.sdf

>  <GenAI_Model>  (1) 
DiffSBDD

>  <Protein>  (1) 
generic_title2

$$$$
DiffSBDD_66_num_sample_100
     RDKit          3D

  0  0  0  0  0  0  0  0  0  0999 V3000
M  V30 BEGIN CTAB
M  V30 COUNTS 88 91 0 0 1
M  V30 BEGIN ATOM
M  V30 1 C 6.163496 7.071600 -12.174842 0
M  V30 2 F 5.756521 4.681705 -20.716485 0
M  V30 3 C 8.633412 6.786773 -13.067473 0 CFG=1
M  V30 4 N 9.364327 6.353951 -10.127724 0
M  V30 5 C 10.193505 7.421699 -8.043433 0
M  V30 6 F 11.091715 6.675042 -13.091843 0
M  V30 7 O 8.697285 3.906379 -20.268941 0
M  V30 8 N 10.700690 6.169380 -6.052813 0
M  V30 9 O 5.156709 6.720272 -20.035748 0
M  V30 10 C 10.332915 6.969102 -10.932371 0
M  V30 11 O 11.273813 8.306544 -6.118661 0
M  V30 12 C 8.779595 5.638021 -14.151868 0
M  V30 13 C 11.545362 7.828456 -4.763380 0
M  V30 14 C 7.597624 4.775283 -14.575993 0
M  V30 15 O 9.034843 9.028382 -9.504436 0
M  V30 16 C 9.470331 6.259934 -8.719676 0
M  V30 17 O 11.423618 7.370836 -10.509326 0
M  V30 18 C 10.142975 8.804633 -8.659498 0
M  V30 19 C 7.617063 3.328054 -14.069348 0
M  V30 20 C 8.545940 3.987663 -19.052312 0
M  V30 21 C 11.085633 6.321462 -4.686495 0
M  V30 22 O 5.834768 3.636369 -10.722099 0
M  V30 23 C 7.021925 6.399630 -17.604757 0
M  V30 24 C 11.860600 4.309456 -17.419940 0
M  V30 25 C 6.158302 5.734951 -19.964068 0 CFG=1
M  V30 26 O 8.905331 5.355840 -8.097909 0
M  V30 27 C 7.660358 6.799453 -11.888785 0 CFG=2
M  V30 28 N 9.564974 4.142053 -18.199552 0
M  V30 29 C 5.192374 7.104134 -15.940235 0 CFG=2
M  V30 30 C 8.153267 4.331891 -11.219572 0
M  V30 31 C 6.656125 2.917808 -12.953118 0 CFG=1
M  V30 32 O 4.173642 6.390038 -16.670759 0
M  V30 33 C 6.839470 1.424220 -12.642689 0
M  V30 34 C 6.635892 5.210094 -15.419398 0
M  V30 35 C 6.376458 5.271617 -18.495469 0 CFG=1
M  V30 36 C 8.120830 5.799563 -10.778697 0 CFG=1
M  V30 37 C 10.023116 7.141721 -12.436912 0 CFG=2
M  V30 38 C 10.709467 7.262370 -6.793416 0
M  V30 39 C 10.943466 4.250962 -18.641168 0
M  V30 40 C 4.328794 7.770011 -16.969331 0
M  V30 41 C 6.588098 6.552737 -16.104223 0 CFG=1
M  V30 42 C 6.752760 3.885968 -11.761151 0 CFG=1
M  V30 43 C 7.148879 3.922275 -18.439886 0
M  V30 44 H 5.821550 6.614364 -13.097085 0
M  V30 45 H 5.536000 6.711178 -11.361564 0
M  V30 46 H 5.962350 8.140903 -12.261491 0
M  V30 47 H 8.234842 7.644851 -13.617076 0
M  V30 48 H 10.115806 5.383552 -6.314550 0
M  V30 49 H 4.369093 6.283331 -20.330923 0
M  V30 50 H 9.092085 6.089101 -15.090651 0
M  V30 51 H 9.609333 4.974918 -13.898369 0
M  V30 52 H 12.583057 7.932366 -4.443491 0
M  V30 53 H 11.034839 8.487778 -4.073564 0
M  V30 54 H 8.243678 8.569295 -9.187555 0
M  V30 55 H 11.084774 9.191341 -9.047443 0
M  V30 56 H 9.920622 9.368626 -7.761420 0
M  V30 57 H 7.403937 2.691782 -14.932076 0
M  V30 58 H 8.629866 3.046624 -13.786590 0
M  V30 59 H 11.893513 5.656272 -4.395147 0
M  V30 60 H 10.242324 6.170770 -4.011805 0
M  V30 61 H 6.175607 2.947885 -10.171110 0
M  V30 62 H 6.881431 7.364094 -18.086994 0
M  V30 63 H 8.097153 6.258267 -17.631248 0
M  V30 64 H 12.904023 4.390935 -17.721735 0
M  V30 65 H 11.625300 5.169159 -16.791353 0
M  V30 66 H 11.756467 3.411611 -16.810165 0
M  V30 67 H 7.075243 6.152855 -20.377304 0
M  V30 68 H 7.857202 7.778839 -11.450690 0
M  V30 69 H 9.377651 4.203601 -17.210634 0
M  V30 70 H 4.978219 7.382045 -14.918891 0
M  V30 71 H 8.441931 3.769567 -10.349488 0
M  V30 72 H 8.958298 4.185913 -11.926326 0
M  V30 73 H 5.641190 3.016268 -13.349948 0
M  V30 74 H 7.854309 1.203134 -12.299816 0
M  V30 75 H 6.121822 1.088614 -11.890144 0
M  V30 76 H 6.661713 0.817174 -13.526341 0
M  V30 77 H 5.850631 4.568599 -15.672078 0
M  V30 78 H 5.386301 5.038840 -18.119939 0
M  V30 79 H 7.327950 5.769306 -10.026204 0
M  V30 80 H 10.109857 8.211213 -12.570445 0
M  V30 81 H 11.203302 3.401715 -19.275039 0
M  V30 82 H 11.059514 5.153964 -19.243590 0
M  V30 83 H 3.489283 8.367373 -16.635508 0
M  V30 84 H 4.732029 7.997303 -17.943058 0
M  V30 85 H 7.224948 7.243116 -15.561749 0
M  V30 86 H 6.285410 4.721967 -12.233809 0
M  V30 87 H 7.221935 3.555585 -17.419881 0
M  V30 88 H 6.582914 3.154385 -18.971382 0
M  V30 END ATOM
M  V30 BEGIN BOND
M  V30 1 1 10 4
M  V30 2 1 12 3
M  V30 3 1 13 11
M  V30 4 1 14 12
M  V30 5 1 16 4
M  V30 6 1 16 5
M  V30 7 2 17 10
M  V30 8 1 18 5
M  V30 9 1 18 15
M  V30 10 1 19 14
M  V30 11 2 20 7
M  V30 12 1 21 8
M  V30 13 1 21 13
M  V30 14 1 25 2
M  V30 15 1 25 9
M  V30 16 2 26 16
M  V30 17 1 27 1
M  V30 18 1 27 3
M  V30 19 1 28 20
M  V30 20 1 31 19
M  V30 21 1 32 29
M  V30 22 1 33 31
M  V30 23 2 34 14
M  V30 24 1 35 23
M  V30 25 1 35 25
M  V30 26 1 36 4
M  V30 27 1 36 27
M  V30 28 1 36 30
M  V30 29 1 37 3
M  V30 30 1 37 6
M  V30 31 1 37 10
M  V30 32 2 38 5
M  V30 33 1 38 8
M  V30 34 1 38 11
M  V30 35 1 39 24
M  V30 36 1 39 28
M  V30 37 1 40 29
M  V30 38 1 40 32
M  V30 39 1 41 23
M  V30 40 1 41 29
M  V30 41 1 41 34
M  V30 42 1 42 22
M  V30 43 1 42 30
M  V30 44 1 42 31
M  V30 45 1 43 20
M  V30 46 1 43 35
M  V30 47 1 44 1
M  V30 48 1 45 1
M  V30 49 1 46 1
M  V30 50 1 3 47 CFG=3
M  V30 51 1 48 8
M  V30 52 1 49 9
M  V30 53 1 50 12
M  V30 54 1 51 12
M  V30 55 1 52 13
M  V30 56 1 53 13
M  V30 57 1 54 15
M  V30 58 1 55 18
M  V30 59 1 56 18
M  V30 60 1 57 19
M  V30 61 1 58 19
M  V30 62 1 59 21
M  V30 63 1 60 21
M  V30 64 1 61 22
M  V30 65 1 62 23
M  V30 66 1 63 23
M  V30 67 1 64 24
M  V30 68 1 65 24
M  V30 69 1 66 24
M  V30 70 1 25 67 CFG=3
M  V30 71 1 27 68 CFG=1
M  V30 72 1 69 28
M  V30 73 1 29 70 CFG=1
M  V30 74 1 71 30
M  V30 75 1 72 30
M  V30 76 1 31 73 CFG=3
M  V30 77 1 74 33
M  V30 78 1 75 33
M  V30 79 1 76 33
M  V30 80 1 77 34
M  V30 81 1 35 78 CFG=1
M  V30 82 1 36 79 CFG=1
M  V30 83 1 37 80 CFG=1
M  V30 84 1 81 39
M  V30 85 1 82 39
M  V30 86 1 83 40
M  V30 87 1 84 40
M  V30 88 1 41 85 CFG=1
M  V30 89 1 42 86 CFG=3
M  V30 90 1 87 43
M  V30 91 1 88 43
M  V30 END BOND
M  V30 END CTAB
M  END
>  <i_epik_Tot_Q>  (1) 
0

>  <i_epik_Tot_abs_Q>  (1) 
0

>  <i_i_glide_confnum>  (1) 
142

>  <i_i_glide_lignum>  (1) 
130

>  <i_i_glide_posenum>  (1) 
199

>  <i_i_glide_rotatable_bonds>  (1) 
15

>  <i_lp_mmshare_version>  (1) 
72125

>  <i_m_source_file_index>  (1) 
67

>  <i_f3d_flags>  (1) 
0

>  <num_sample>  (1) 
100

>  <b_lp_Chiralities_Consistent>  (1) 
1

>  <r_epik_Charging_Adjusted_Penalty>  (1) 
0.011224841026204068

>  <r_epik_Ionization_Penalty>  (1) 
0.011270599783865109

>  <r_epik_Ionization_Penalty_Charging>  (1) 
8.5422756824624084e-11

>  <r_epik_Ionization_Penalty_Neutral>  (1) 
0.011270599698442352

>  <r_epik_State_Penalty>  (1) 
0.01122484094078131

>  <r_glide_ring_energy>  (1) 
0

>  <r_i_docking_score>  (1) 
-3.9418967588243081

>  <r_i_glide_ecoul>  (1) 
-8.3063877622986251

>  <r_i_glide_eff_state_penalty>  (1) 
0.01122484094078131

>  <r_i_glide_einternal>  (1) 
14.928820157097967

>  <r_i_glide_emodel>  (1) 
-13.649315169664444

>  <r_i_glide_emodel_strain>  (1) 
6.8591005916294705

>  <r_i_glide_energy>  (1) 
-21.600159882607713

>  <r_i_glide_erotb>  (1) 
0.43215163049877869

>  <r_i_glide_esite>  (1) 
-0.20385155009919106

>  <r_i_glide_evdw>  (1) 
-13.29377212030909

>  <r_i_glide_gscore>  (1) 
-3.9531215997650895

>  <r_i_glide_gscore_strain>  (1) 
0.71477514790736763

>  <r_i_glide_hbond>  (1) 
-0.13474215618831775

>  <r_i_glide_ligand_efficiency>  (1) 
-0.091672017647076928

>  <r_i_glide_ligand_efficiency_ln>  (1) 
-0.82792083152129681

>  <r_i_glide_ligand_efficiency_sa>  (1) 
-0.32116356881650693

>  <r_i_glide_lipo>  (1) 
-2.2932639052298622

>  <r_i_glide_metal>  (1) 
-0

>  <r_i_glide_rewards>  (1) 
-0.55754399629361684

>  <r_lp_Energy>  (1) 
55.849022999999995

>  <r_lp_tautomer_probability>  (1) 
0.49997499999946832

>  <s_epik_Chemistry_Notes>  (1) 
This compound has an imine and may undergo hydrolysis.

>  <s_epik_cmdline>  (1) 
J2VwaWtfcHl0aG9uJywgJy1waHQnLCAnMS4wJywgJy1waCcsICc3LjQnLCAnLXRuJywgJzgnLCAnLW1hJywgJzUwMCcsICctaW1hZScsICc8aW5maWxlLm1hZT4nLCAnLW9tYWUnLCAnPG91dGZpbGUubWFlPic=

>  <s_epik_input>  (1) 
TzFbQ0gyXVtDSDJdTj1DMVtDQEhdKFtDSDJdW09IXSlDKD1PKU4oQyg9TylbQ0BIXTJGKVtDQEBIXShbQ0BASF0zW0NIM10pW0NIMl1bQ0BIXShbT0hdKVtDQEhdKFtDSDNdKVtDSDJdQyhcW0NIMl1bQ0BIXTIzKT1bQ0hdXFtDQEhdKFtDQEBIXTRPW0NIMl00KVtDSDJdW0NAQEhdKFtDQEBIXShGKVtPSF0pW0NIMl1DKD1PKVtOSF1bQ0gyXVtDSDNd

>  <s_glide_docking_method>  (1) 
confgen

>  <s_i_glide_gridfile>  (1) 
gpcr_drd2_6luq_protein_autoprepared_prepared

>  <s_lp_Force_Field>  (1) 
S-OPLS

>  <s_lp_Variant>  (1) 
DiffSBDD_66_num_sample_100-2

>  <s_m_source_file>  (1) 
generated__ligand_DiffSBDD_2026-05-06_prepared.sdf

>  <GenAI_Model>  (1) 
DiffSBDD

>  <Protein>  (1) 
generic_title2

$$$$
DiffSBDD_49_num_sample_100
     RDKit          3D

  0  0  0  0  0  0  0  0  0  0999 V3000
M  V30 BEGIN CTAB
M  V30 COUNTS 52 55 0 0 1
M  V30 BEGIN ATOM
M  V30 1 N 9.423220 5.427022 -11.176172 0
M  V30 2 C 9.900331 7.170998 -7.286853 0
M  V30 3 C 11.859820 8.359336 -8.124198 0
M  V30 4 C 5.809674 5.696648 -13.219227 0
M  V30 5 C 7.392202 1.617478 -16.685420 0
M  V30 6 S 8.995804 7.981828 -11.891676 0
M  V30 7 C 9.581985 6.769980 -8.598577 0
M  V30 8 C 7.567955 3.137149 -14.613152 0 CFG=1
M  V30 9 C 10.062295 6.734280 -11.107067 0 CFG=1
M  V30 10 C 6.550153 6.931523 -12.701684 0
M  V30 11 C 8.023301 3.148798 -13.125601 0
M  V30 12 C 8.420769 5.451971 -11.948530 0
M  V30 13 C 8.173420 2.635427 -17.539043 0 CFG=2
M  V30 14 O 9.873510 1.095885 -18.362846 0
M  V30 15 C 7.497889 4.244814 -12.157104 0 CFG=1
M  V30 16 C 9.676522 2.309785 -17.667550 0
M  V30 17 C 10.402900 7.164980 -9.679986 0
M  V30 18 C 8.283947 4.190265 -15.496587 0
M  V30 19 C 11.038738 7.964486 -7.049364 0
M  V30 20 C 8.061464 6.689040 -12.703841 0 CFG=2
M  V30 21 C 7.743873 1.714716 -15.192484 0
M  V30 22 N 6.075775 4.559364 -12.345050 0
M  V30 23 C 7.934035 4.053932 -16.989609 0
M  V30 24 C 11.542550 7.961996 -9.438195 0
M  V30 25 H 7.499442 3.769302 -11.177733 0
M  V30 26 H 9.269096 6.870106 -6.462934 0
M  V30 27 H 12.733148 8.967381 -7.941122 0
M  V30 28 H 4.742070 5.888315 -13.249776 0
M  V30 29 H 6.096652 5.480707 -14.244781 0
M  V30 30 H 6.321855 1.784800 -16.811816 0
M  V30 31 H 7.573467 0.603796 -17.044588 0
M  V30 32 H 8.704829 6.164620 -8.777099 0
M  V30 33 H 6.497811 3.332385 -14.659965 0
M  V30 34 H 10.987219 6.692942 -11.684743 0
M  V30 35 H 6.200396 7.189490 -11.699853 0
M  V30 36 H 6.315613 7.769266 -13.349677 0
M  V30 37 H 7.696705 2.203303 -12.691244 0
M  V30 38 H 9.110939 3.100444 -13.071072 0
M  V30 39 H 7.758552 2.606496 -18.547636 0
M  V30 40 H 10.802114 0.953278 -18.465454 0
M  V30 41 H 10.156937 2.247165 -16.692792 0
M  V30 42 H 10.184233 3.101103 -18.219413 0
M  V30 43 H 7.988007 5.187819 -15.197090 0
M  V30 44 H 9.364587 4.169139 -15.360240 0
M  V30 45 H 11.282243 8.270821 -6.042898 0
M  V30 46 H 7.113868 1.014275 -14.643067 0
M  V30 47 H 8.761417 1.369359 -15.036633 0
M  V30 48 H 8.499894 4.782824 -17.570305 0
M  V30 49 H 6.885801 4.317641 -17.130421 0
M  V30 50 H 12.173221 8.267830 -10.260349 0
M  V30 51 H 5.577544 3.736907 -12.653273 0
M  V30 52 H 8.440029 6.590816 -13.714781 0
M  V30 END ATOM
M  V30 BEGIN BOND
M  V30 1 1 7 2
M  V30 2 1 9 1
M  V30 3 1 9 6
M  V30 4 1 10 4
M  V30 5 1 11 8
M  V30 6 2 12 1
M  V30 7 1 13 5
M  V30 8 1 15 11
M  V30 9 1 15 12
M  V30 10 1 16 13
M  V30 11 1 16 14
M  V30 12 2 17 7
M  V30 13 1 17 9
M  V30 14 1 18 8
M  V30 15 2 19 2
M  V30 16 1 19 3
M  V30 17 1 20 6
M  V30 18 1 20 10
M  V30 19 1 20 12
M  V30 20 1 21 5
M  V30 21 1 21 8
M  V30 22 1 22 4
M  V30 23 1 22 15
M  V30 24 1 23 13
M  V30 25 1 23 18
M  V30 26 2 24 3
M  V30 27 1 24 17
M  V30 28 1 15 25 CFG=1
M  V30 29 1 26 2
M  V30 30 1 27 3
M  V30 31 1 28 4
M  V30 32 1 29 4
M  V30 33 1 30 5
M  V30 34 1 31 5
M  V30 35 1 32 7
M  V30 36 1 8 33 CFG=1
M  V30 37 1 9 34 CFG=3
M  V30 38 1 35 10
M  V30 39 1 36 10
M  V30 40 1 37 11
M  V30 41 1 38 11
M  V30 42 1 13 39 CFG=3
M  V30 43 1 40 14
M  V30 44 1 41 16
M  V30 45 1 42 16
M  V30 46 1 43 18
M  V30 47 1 44 18
M  V30 48 1 45 19
M  V30 49 1 46 21
M  V30 50 1 47 21
M  V30 51 1 48 23
M  V30 52 1 49 23
M  V30 53 1 50 24
M  V30 54 1 51 22
M  V30 55 1 20 52 CFG=3
M  V30 END BOND
M  V30 END CTAB
M  END
>  <i_epik_Tot_Q>  (1) 
0

>  <i_epik_Tot_abs_Q>  (1) 
0

>  <i_i_glide_confnum>  (1) 
25

>  <i_i_glide_lignum>  (1) 
92

>  <i_i_glide_posenum>  (1) 
368

>  <i_i_glide_rotatable_bonds>  (1) 
5

>  <i_lp_mmshare_version>  (1) 
72125

>  <i_m_source_file_index>  (1) 
50

>  <i_f3d_flags>  (1) 
0

>  <num_sample>  (1) 
100

>  <b_lp_Chiralities_Consistent>  (1) 
1

>  <r_epik_Charging_Adjusted_Penalty>  (1) 
0.1447540794995397

>  <r_epik_Ionization_Penalty>  (1) 
0.14481163516182699

>  <r_epik_Ionization_Penalty_Charging>  (1) 
0

>  <r_epik_Ionization_Penalty_Neutral>  (1) 
0.14481163516182699

>  <r_epik_State_Penalty>  (1) 
0.1447540794995397

>  <r_glide_ring_energy>  (1) 
0.012110018449817897

>  <r_i_docking_score>  (1) 
-3.9382206013023988

>  <r_i_glide_ecoul>  (1) 
0.90193067460655907

>  <r_i_glide_eff_state_penalty>  (1) 
0.1447540794995397

>  <r_i_glide_einternal>  (1) 
3.0503204203085783

>  <r_i_glide_emodel>  (1) 
-31.790251942299058

>  <r_i_glide_emodel_strain>  (1) 
0.041343182526674127

>  <r_i_glide_energy>  (1) 
-29.181657870853773

>  <r_i_glide_erotb>  (1) 
0.63990235469448886

>  <r_i_glide_esite>  (1) 
-0.0025958572125960771

>  <r_i_glide_evdw>  (1) 
-30.08358854546033

>  <r_i_glide_gscore>  (1) 
-4.0829746808019385

>  <r_i_glide_gscore_strain>  (1) 
0

>  <r_i_glide_hbond>  (1) 
0

>  <r_i_glide_ligand_efficiency>  (1) 
-0.16409252505426661

>  <r_i_glide_ligand_efficiency_ln>  (1) 
-0.94259690305963018

>  <r_i_glide_ligand_efficiency_sa>  (1) 
-0.47332474750034736

>  <r_i_glide_lipo>  (1) 
-1.5529279060860059

>  <r_i_glide_metal>  (1) 
-0

>  <r_i_glide_rewards>  (1) 
-1.7984634461157922

>  <r_lp_Energy>  (1) 
25.428964000000001

>  <r_lp_tautomer_probability>  (1) 
0.99998399999999998

>  <s_epik_Chemistry_Notes>  (1) 
This compound has an imine and may undergo hydrolysis. This compound contains an acetal/aminal-like group ( X-CH(R)-Y where X, Y are N, S, or O) that may be acid/base labile, releasing an aldehyde.

>  <s_epik_cmdline>  (1) 
J2VwaWtfcHl0aG9uJywgJy1waHQnLCAnMS4wJywgJy1waCcsICc3LjQnLCAnLXRuJywgJzgnLCAnLW1hJywgJzUwMCcsICctaW1hZScsICc8aW5maWxlLm1hZT4nLCAnLW9tYWUnLCAnPG91dGZpbGUubWFlPic=

>  <s_epik_input>  (1) 
W2NIXTFbY0hdW2NIXVtjSF1bY0hdYzFbQ0BASF0oW05IXTIpU1tDQEBIXShbQ0BIXTIzKVtDSDJdW0NIMl1OPUMzW0NIMl1bQ0BIXTRbQ0gyXVtDSDJdW0NASF0oW0NIMl1bQ0gyXTQpW0NIMl1bT0hd

>  <s_glide_docking_method>  (1) 
confgen

>  <s_i_glide_gridfile>  (1) 
gpcr_drd2_6luq_protein_autoprepared_prepared

>  <s_lp_Force_Field>  (1) 
S-OPLS

>  <s_lp_Variant>  (1) 
DiffSBDD_49_num_sample_100-2

>  <s_m_source_file>  (1) 
generated__ligand_DiffSBDD_2026-05-06_prepared.sdf

>  <GenAI_Model>  (1) 
DiffSBDD

>  <Protein>  (1) 
generic_title2

$$$$
DiffSBDD_76_num_sample_100
     RDKit          3D

  0  0  0  0  0  0  0  0  0  0999 V3000
M  V30 BEGIN CTAB
M  V30 COUNTS 77 80 0 0 1
M  V30 BEGIN ATOM
M  V30 1 C 6.482389 1.873493 -13.255007 0
M  V30 2 C 7.786984 3.062581 -18.074604 0
M  V30 3 C 9.184531 4.485425 -12.370026 0
M  V30 4 N 7.084550 3.225800 -13.146671 0 CFG=1 CHG=1
M  V30 5 C 7.927657 3.724077 -19.330303 0
M  V30 6 C 12.599312 9.316910 -4.784887 0
M  V30 7 C 11.584035 8.522753 -4.470603 0
M  V30 8 C 10.466315 7.697620 -7.940942 0 CFG=1
M  V30 9 C 7.429071 1.792313 -15.618291 0
M  V30 10 N 9.434867 7.537114 -10.253295 0
M  V30 11 C 9.029651 8.385816 -11.378193 0
M  V30 12 C 7.269356 3.193097 -15.674932 0
M  V30 13 C 10.433901 8.257538 -5.419832 0
M  V30 14 C 7.234757 5.241529 -17.045146 0
M  V30 15 C 7.780157 1.106666 -16.787835 0
M  V30 16 C 11.757477 8.564808 -10.101976 0
M  V30 17 C 7.212555 1.032417 -14.318808 0
M  V30 18 C 9.834824 6.172395 -10.620401 0
M  V30 19 N 7.972400 1.716213 -17.969877 0
M  V30 20 O 7.838492 7.864043 -11.891667 0
M  V30 21 O 8.152105 5.314398 -21.833680 0
M  V30 22 C 10.549060 8.779160 -6.858252 0 CFG=1
M  V30 23 C 7.707124 5.137161 -19.438510 0
M  V30 24 C 8.753192 5.154992 -11.059550 0
M  V30 25 N 11.434833 5.778457 -6.691945 0 CHG=1
M  V30 26 C 10.393988 8.272540 -9.400068 0 CFG=2
M  V30 27 O 8.264123 2.984581 -20.439137 0 CHG=-1
M  V30 28 C 8.495941 3.156796 -12.700009 0
M  V30 29 C 7.435024 3.846339 -16.928668 0
M  V30 30 C 6.887405 3.982787 -14.413269 0
M  V30 31 C 11.653447 6.786015 -7.729984 0
M  V30 32 C 12.676484 9.920892 -6.073956 0
M  V30 33 C 11.754560 9.690289 -7.027157 0
M  V30 34 C 7.823453 5.855049 -20.778652 0
M  V30 35 C 7.364880 5.877020 -18.286128 0
M  V30 36 C 7.490627 7.348586 -20.772711 0
M  V30 37 H 6.503338 1.362397 -12.292491 0
M  V30 38 H 5.429794 1.980936 -13.518912 0
M  V30 39 H 9.161327 5.201301 -13.188063 0
M  V30 40 H 10.235768 4.225921 -12.272385 0
M  V30 41 H 13.382374 9.497314 -4.061750 0
M  V30 42 H 11.533236 8.066113 -3.493142 0
M  V30 43 H 9.540143 7.139681 -7.776710 0
M  V30 44 H 9.796703 8.501991 -12.145903 0
M  V30 45 H 8.746802 9.366157 -11.005984 0
M  V30 46 H 9.834883 9.065215 -5.092679 0
M  V30 47 H 9.876900 7.334391 -5.258911 0
M  V30 48 H 6.962364 5.827433 -16.183023 0
M  V30 49 H 7.909627 0.034112 -16.775653 0
M  V30 50 H 11.858726 9.633580 -10.291350 0
M  V30 51 H 12.637541 8.333044 -9.505285 0
M  V30 52 H 11.877336 8.034782 -11.047629 0
M  V30 53 H 6.625514 0.140117 -14.531990 0
M  V30 54 H 8.174265 0.671527 -13.953046 0
M  V30 55 H 10.629062 6.229650 -11.363788 0
M  V30 56 H 10.233627 5.699778 -9.734758 0
M  V30 57 H 7.292503 7.694023 -11.128105 0
M  V30 58 H 9.651413 9.368896 -7.043668 0
M  V30 59 H 8.680646 4.384846 -10.290764 0
M  V30 60 H 7.748836 5.569646 -11.127078 0
M  V30 61 H 12.223858 5.148521 -6.663474 0
M  V30 62 H 11.328994 6.243835 -5.802857 0
M  V30 63 H 9.923814 9.249073 -9.273644 0
M  V30 64 H 9.034712 2.691037 -13.493858 0
M  V30 65 H 8.635721 2.455125 -11.891564 0
M  V30 66 H 5.835714 4.255415 -14.488351 0
M  V30 67 H 7.432806 4.920240 -14.358332 0
M  V30 68 H 11.811554 6.310023 -8.673509 0
M  V30 69 H 12.579487 7.318274 -7.508121 0
M  V30 70 H 13.499822 10.579735 -6.289207 0
M  V30 71 H 11.834811 10.168390 -7.983748 0
M  V30 72 H 7.194581 6.937929 -18.352805 0
M  V30 73 H 7.438577 7.717310 -21.797293 0
M  V30 74 H 6.523873 7.538972 -20.305252 0
M  V30 75 H 8.268661 7.912742 -20.264507 0
M  V30 76 H 10.595298 5.253278 -6.890291 0
M  V30 77 H 6.588192 3.724456 -12.423385 0
M  V30 END ATOM
M  V30 BEGIN BOND
M  V30 1 1 4 1
M  V30 2 2 5 2
M  V30 3 2 7 6
M  V30 4 1 11 10
M  V30 5 2 12 9
M  V30 6 1 13 7
M  V30 7 1 15 9
M  V30 8 1 17 1
M  V30 9 1 17 9
M  V30 10 1 18 10
M  V30 11 1 19 2
M  V30 12 2 19 15
M  V30 13 1 20 11
M  V30 14 1 22 8
M  V30 15 1 22 13
M  V30 16 1 23 5
M  V30 17 1 24 3
M  V30 18 1 24 18
M  V30 19 1 26 8
M  V30 20 1 26 10
M  V30 21 1 26 16
M  V30 22 1 27 5
M  V30 23 1 28 3
M  V30 24 1 28 4
M  V30 25 1 29 2
M  V30 26 1 29 12
M  V30 27 2 29 14
M  V30 28 1 30 4
M  V30 29 1 30 12
M  V30 30 1 31 8
M  V30 31 1 31 25
M  V30 32 1 32 6
M  V30 33 1 33 22
M  V30 34 2 33 32
M  V30 35 2 34 21
M  V30 36 1 34 23
M  V30 37 1 35 14
M  V30 38 2 35 23
M  V30 39 1 36 34
M  V30 40 1 37 1
M  V30 41 1 38 1
M  V30 42 1 39 3
M  V30 43 1 40 3
M  V30 44 1 41 6
M  V30 45 1 42 7
M  V30 46 1 8 43 CFG=1
M  V30 47 1 44 11
M  V30 48 1 45 11
M  V30 49 1 46 13
M  V30 50 1 47 13
M  V30 51 1 48 14
M  V30 52 1 49 15
M  V30 53 1 50 16
M  V30 54 1 51 16
M  V30 55 1 52 16
M  V30 56 1 53 17
M  V30 57 1 54 17
M  V30 58 1 55 18
M  V30 59 1 56 18
M  V30 60 1 57 20
M  V30 61 1 22 58 CFG=3
M  V30 62 1 59 24
M  V30 63 1 60 24
M  V30 64 1 61 25
M  V30 65 1 62 25
M  V30 66 1 26 63 CFG=1
M  V30 67 1 64 28
M  V30 68 1 65 28
M  V30 69 1 66 30
M  V30 70 1 67 30
M  V30 71 1 68 31
M  V30 72 1 69 31
M  V30 73 1 70 32
M  V30 74 1 71 33
M  V30 75 1 72 35
M  V30 76 1 73 36
M  V30 77 1 74 36
M  V30 78 1 75 36
M  V30 79 1 76 25
M  V30 80 1 4 77 CFG=1
M  V30 END BOND
M  V30 END CTAB
M  END
>  <i_epik_Tot_Q>  (1) 
1

>  <i_epik_Tot_abs_Q>  (1) 
3

>  <i_i_glide_confnum>  (1) 
2272

>  <i_i_glide_lignum>  (1) 
152

>  <i_i_glide_posenum>  (1) 
256

>  <i_i_glide_rotatable_bonds>  (1) 
12

>  <i_lp_mmshare_version>  (1) 
72125

>  <i_m_source_file_index>  (1) 
77

>  <i_f3d_flags>  (1) 
0

>  <num_sample>  (1) 
100

>  <b_lp_Chiralities_Consistent>  (1) 
1

>  <r_epik_Charging_Adjusted_Penalty>  (1) 
0.19513752508682314

>  <r_epik_Ionization_Penalty>  (1) 
0.12765993639139714

>  <r_epik_Ionization_Penalty_Charging>  (1) 
0.058121654325050918

>  <r_epik_Ionization_Penalty_Neutral>  (1) 
0.069538282066346213

>  <r_epik_State_Penalty>  (1) 
0.13701587076177221

>  <r_glide_ring_energy>  (1) 
0.68305203791256597

>  <r_i_docking_score>  (1) 
-3.9366964442409169

>  <r_i_glide_ecoul>  (1) 
-3.4910840720459584

>  <r_i_glide_eff_state_penalty>  (1) 
0.13701587076177221

>  <r_i_glide_einternal>  (1) 
18.013845757349799

>  <r_i_glide_emodel>  (1) 
-6.2305435447384241

>  <r_i_glide_emodel_strain>  (1) 
4.9656650767837789

>  <r_i_glide_energy>  (1) 
-9.4680973268216491

>  <r_i_glide_erotb>  (1) 
0.66875336800380736

>  <r_i_glide_esite>  (1) 
-0.085974948355159952

>  <r_i_glide_evdw>  (1) 
-5.9770132547756898

>  <r_i_glide_gscore>  (1) 
-4.0737123150026893

>  <r_i_glide_gscore_strain>  (1) 
0.24141626919594472

>  <r_i_glide_hbond>  (1) 
-0.16

>  <r_i_glide_ligand_efficiency>  (1) 
-0.10935267900669214

>  <r_i_glide_ligand_efficiency_ln>  (1) 
-0.85888080688653912

>  <r_i_glide_ligand_efficiency_sa>  (1) 
-0.36107459055182423

>  <r_i_glide_lipo>  (1) 
-3.0803578086038308

>  <r_i_glide_metal>  (1) 
-0

>  <r_i_glide_rewards>  (1) 
-0.83503592169777352

>  <r_lp_Energy>  (1) 
69.514248999999992

>  <r_lp_tautomer_probability>  (1) 
0.99995000000000001

>  <s_epik_Chemistry_Notes>  (1) 
This compound contains an acetal/aminal-like group ( X-CH(R)-Y where X, Y are N, S, or O) that may be acid/base labile, releasing an aldehyde.

>  <s_epik_cmdline>  (1) 
J2VwaWtfcHl0aG9uJywgJy1waHQnLCAnMS4wJywgJy1waCcsICc3LjQnLCAnLXRuJywgJzgnLCAnLW1hJywgJzUwMCcsICctaW1hZScsICc8aW5maWxlLm1hZT4nLCAnLW9tYWUnLCAnPG91dGZpbGUubWFlPic=

>  <s_epik_input>  (1) 
Tz1DKFtDSDNdKWMoYzFbT0hdKVtjSF1bY0hdYyhjMTIpYzNjKFtjSF1uMilbQ0gyXVtDSDJdTihbQ0gyXTMpW0NIMl1bQ0gyXVtDSDJdW0NIMl1OKFtDSDJdW09IXSlbQ0BIXShbQ0gzXSlbQ0BASF0oW0NIMl1bTkgyXSlbQ0BIXTRbQ0gyXVtDSF09W0NIXVtDSF09W0NIXTQ=

>  <s_glide_docking_method>  (1) 
confgen

>  <s_i_glide_gridfile>  (1) 
gpcr_drd2_6luq_protein_autoprepared_prepared

>  <s_lp_Force_Field>  (1) 
S-OPLS

>  <s_lp_Variant>  (1) 
DiffSBDD_76_num_sample_100-1

>  <s_m_source_file>  (1) 
generated__ligand_DiffSBDD_2026-05-06_prepared.sdf

>  <GenAI_Model>  (1) 
DiffSBDD

>  <Protein>  (1) 
generic_title2

$$$$
DiffSBDD_66_num_sample_100
     RDKit          3D

  0  0  0  0  0  0  0  0  0  0999 V3000
M  V30 BEGIN CTAB
M  V30 COUNTS 88 91 0 0 1
M  V30 BEGIN ATOM
M  V30 1 C 11.061290 4.410367 -16.607895 0
M  V30 2 F 7.744955 4.742328 -9.487734 0
M  V30 3 C 8.726329 5.362451 -16.710167 0 CFG=1
M  V30 4 N 9.010486 3.067182 -18.623990 0
M  V30 5 C 9.561666 0.726213 -18.742682 0
M  V30 6 F 7.557930 6.261759 -18.558905 0
M  V30 7 O 9.572250 8.569298 -7.723678 0
M  V30 8 N 7.445365 -0.329274 -19.212057 0
M  V30 9 O 9.829944 4.569204 -8.691619 0
M  V30 10 C 8.736038 4.317010 -19.176994 0
M  V30 11 O 8.983945 -1.461305 -18.067085 0
M  V30 12 C 7.374591 5.518030 -15.983667 0
M  V30 13 C 7.764334 -2.267669 -18.148454 0
M  V30 14 C 7.385978 5.188878 -14.502019 0
M  V30 15 O 11.816551 1.740319 -18.381961 0
M  V30 16 C 9.160196 1.949807 -19.460115 0
M  V30 17 O 8.599476 4.504243 -20.388544 0
M  V30 18 C 10.978889 0.619477 -18.151399 0
M  V30 19 C 6.626079 3.934589 -14.094890 0
M  V30 20 C 10.414330 7.715400 -7.987354 0
M  V30 21 C 6.693647 -1.511572 -19.021423 0
M  V30 22 O 6.496099 0.840222 -15.280397 0
M  V30 23 C 9.357328 6.130870 -11.460416 0
M  V30 24 C 11.583057 8.860586 -5.273546 0
M  V30 25 C 8.784194 5.450602 -8.992440 0 CFG=1
M  V30 26 O 8.966461 1.987503 -20.678632 0
M  V30 27 C 9.556920 4.149020 -16.371179 0 CFG=1
M  V30 28 N 11.189814 7.144061 -7.053732 0
M  V30 29 C 6.756833 6.538635 -11.576205 0 CFG=2
M  V30 30 C 7.688040 2.354531 -16.616149 0
M  V30 31 C 7.455664 2.639740 -13.928481 0 CFG=1
M  V30 32 O 5.790742 6.928766 -12.572339 0
M  V30 33 C 6.880960 1.852904 -12.724330 0
M  V30 34 C 7.991772 5.990386 -13.604072 0
M  V30 35 C 9.321291 6.538105 -9.966973 0 CFG=1
M  V30 36 C 9.057147 2.907517 -17.118150 0 CFG=1
M  V30 37 C 8.629064 5.534796 -18.227863 0 CFG=2
M  V30 38 C 8.684167 -0.300685 -18.695130 0
M  V30 39 C 11.067604 7.455940 -5.631148 0
M  V30 40 C 6.474326 7.983737 -11.891692 0
M  V30 41 C 7.978117 5.772124 -12.108752 0 CFG=1
M  V30 42 C 7.598072 1.723956 -15.198160 0 CFG=1
M  V30 43 C 10.603385 7.233460 -9.433298 0
M  V30 44 H 11.291378 4.601392 -17.655223 0
M  V30 45 H 11.405166 5.270033 -16.030029 0
M  V30 46 H 11.669292 3.564777 -16.294150 0
M  V30 47 H 9.328516 6.169265 -16.320376 0
M  V30 48 H 7.059264 0.444354 -19.734805 0
M  V30 49 H 9.991435 4.040017 -9.458774 0
M  V30 50 H 7.077972 6.565139 -16.046865 0
M  V30 51 H 6.556857 5.022387 -16.495058 0
M  V30 52 H 7.989179 -3.249153 -18.565670 0
M  V30 53 H 7.384235 -2.410452 -17.135857 0
M  V30 54 H 11.628759 2.400636 -17.731449 0
M  V30 55 H 11.460511 -0.229750 -18.635598 0
M  V30 56 H 10.945276 0.372639 -17.092136 0
M  V30 57 H 6.089269 4.178103 -13.179655 0
M  V30 58 H 5.834465 3.769179 -14.789996 0
M  V30 59 H 6.491125 -2.005444 -19.971837 0
M  V30 60 H 5.767660 -1.317252 -18.481486 0
M  V30 61 H 5.700533 1.346846 -15.327898 0
M  V30 62 H 10.051830 5.303815 -11.608699 0
M  V30 63 H 9.787067 6.973419 -12.004725 0
M  V30 64 H 11.504839 9.033779 -4.199599 0
M  V30 65 H 12.627996 8.980766 -5.556279 0
M  V30 66 H 11.007857 9.640130 -5.773639 0
M  V30 67 H 8.451482 5.901068 -8.057504 0
M  V30 68 H 9.435107 4.002832 -15.309211 0
M  V30 69 H 11.858319 6.439890 -7.329041 0
M  V30 70 H 6.283481 6.130309 -10.688402 0
M  V30 71 H 7.423537 1.551466 -17.298017 0
M  V30 72 H 6.873221 3.038543 -16.797134 0
M  V30 73 H 8.458191 2.940751 -13.623089 0
M  V30 74 H 5.942335 1.347662 -12.951981 0
M  V30 75 H 7.586536 1.099066 -12.370547 0
M  V30 76 H 6.634780 2.521540 -11.898885 0
M  V30 77 H 8.483256 6.876981 -13.936839 0
M  V30 78 H 8.635313 7.359566 -9.990456 0
M  V30 79 H 9.766878 2.174200 -16.777692 0
M  V30 80 H 9.464763 6.170324 -18.521133 0
M  V30 81 H 10.026044 7.341591 -5.325904 0
M  V30 82 H 11.631966 6.706845 -5.075027 0
M  V30 83 H 5.819717 8.569490 -11.252410 0
M  V30 84 H 7.258243 8.515877 -12.425562 0
M  V30 85 H 7.806275 4.718630 -11.902275 0
M  V30 86 H 8.464956 1.079618 -15.053389 0
M  V30 87 H 11.462109 6.569767 -9.491962 0
M  V30 88 H 10.835582 8.102918 -10.049731 0
M  V30 END ATOM
M  V30 BEGIN BOND
M  V30 1 1 10 4
M  V30 2 1 12 3
M  V30 3 1 13 11
M  V30 4 1 14 12
M  V30 5 1 16 4
M  V30 6 1 16 5
M  V30 7 2 17 10
M  V30 8 1 18 5
M  V30 9 1 18 15
M  V30 10 1 19 14
M  V30 11 2 20 7
M  V30 12 1 21 8
M  V30 13 1 21 13
M  V30 14 1 25 2
M  V30 15 1 25 9
M  V30 16 2 26 16
M  V30 17 1 27 1
M  V30 18 1 27 3
M  V30 19 1 28 20
M  V30 20 1 31 19
M  V30 21 1 32 29
M  V30 22 1 33 31
M  V30 23 2 34 14
M  V30 24 1 35 23
M  V30 25 1 35 25
M  V30 26 1 36 4
M  V30 27 1 36 27
M  V30 28 1 36 30
M  V30 29 1 37 3
M  V30 30 1 37 6
M  V30 31 1 37 10
M  V30 32 2 38 5
M  V30 33 1 38 8
M  V30 34 1 38 11
M  V30 35 1 39 24
M  V30 36 1 39 28
M  V30 37 1 40 29
M  V30 38 1 40 32
M  V30 39 1 41 23
M  V30 40 1 41 29
M  V30 41 1 41 34
M  V30 42 1 42 22
M  V30 43 1 42 30
M  V30 44 1 42 31
M  V30 45 1 43 20
M  V30 46 1 43 35
M  V30 47 1 44 1
M  V30 48 1 45 1
M  V30 49 1 46 1
M  V30 50 1 3 47 CFG=1
M  V30 51 1 48 8
M  V30 52 1 49 9
M  V30 53 1 50 12
M  V30 54 1 51 12
M  V30 55 1 52 13
M  V30 56 1 53 13
M  V30 57 1 54 15
M  V30 58 1 55 18
M  V30 59 1 56 18
M  V30 60 1 57 19
M  V30 61 1 58 19
M  V30 62 1 59 21
M  V30 63 1 60 21
M  V30 64 1 61 22
M  V30 65 1 62 23
M  V30 66 1 63 23
M  V30 67 1 64 24
M  V30 68 1 65 24
M  V30 69 1 66 24
M  V30 70 1 25 67 CFG=1
M  V30 71 1 27 68 CFG=1
M  V30 72 1 69 28
M  V30 73 1 29 70 CFG=1
M  V30 74 1 71 30
M  V30 75 1 72 30
M  V30 76 1 31 73 CFG=1
M  V30 77 1 74 33
M  V30 78 1 75 33
M  V30 79 1 76 33
M  V30 80 1 77 34
M  V30 81 1 35 78 CFG=3
M  V30 82 1 36 79 CFG=3
M  V30 83 1 37 80 CFG=3
M  V30 84 1 81 39
M  V30 85 1 82 39
M  V30 86 1 83 40
M  V30 87 1 84 40
M  V30 88 1 41 85 CFG=3
M  V30 89 1 42 86 CFG=1
M  V30 90 1 87 43
M  V30 91 1 88 43
M  V30 END BOND
M  V30 END CTAB
M  END
>  <i_epik_Tot_Q>  (1) 
0

>  <i_epik_Tot_abs_Q>  (1) 
0

>  <i_i_glide_confnum>  (1) 
1718

>  <i_i_glide_lignum>  (1) 
131

>  <i_i_glide_posenum>  (1) 
158

>  <i_i_glide_rotatable_bonds>  (1) 
15

>  <i_lp_mmshare_version>  (1) 
72125

>  <i_m_source_file_index>  (1) 
67

>  <i_f3d_flags>  (1) 
0

>  <num_sample>  (1) 
100

>  <b_lp_Chiralities_Consistent>  (1) 
1

>  <r_epik_Charging_Adjusted_Penalty>  (1) 
0.011224841026204068

>  <r_epik_Ionization_Penalty>  (1) 
0.011270599783865109

>  <r_epik_Ionization_Penalty_Charging>  (1) 
8.5422756824624084e-11

>  <r_epik_Ionization_Penalty_Neutral>  (1) 
0.011270599698442352

>  <r_epik_State_Penalty>  (1) 
0.01122484094078131

>  <r_glide_ring_energy>  (1) 
0

>  <r_i_docking_score>  (1) 
-3.932415071951286

>  <r_i_glide_ecoul>  (1) 
-2.4395947127649489

>  <r_i_glide_eff_state_penalty>  (1) 
0.01122484094078131

>  <r_i_glide_einternal>  (1) 
15.685141163743282

>  <r_i_glide_emodel>  (1) 
-29.749134687564144

>  <r_i_glide_emodel_strain>  (1) 
3.3839788493257004

>  <r_i_glide_energy>  (1) 
-31.935837605264496

>  <r_i_glide_erotb>  (1) 
0.43215163049877869

>  <r_i_glide_esite>  (1) 
-0.090420064386307425

>  <r_i_glide_evdw>  (1) 
-29.496242892499545

>  <r_i_glide_gscore>  (1) 
-3.9436399128920674

>  <r_i_glide_gscore_strain>  (1) 
0

>  <r_i_glide_hbond>  (1) 
0

>  <r_i_glide_ligand_efficiency>  (1) 
-0.091451513301192694

>  <r_i_glide_ligand_efficiency_ln>  (1) 
-0.82592938259190407

>  <r_i_glide_ligand_efficiency_sa>  (1) 
-0.32039105431882925

>  <r_i_glide_lipo>  (1) 
-1.8370047902893749

>  <r_i_glide_metal>  (1) 
-0

>  <r_i_glide_rewards>  (1) 
-0.60761533717544391

>  <r_lp_Energy>  (1) 
48.107619999999997

>  <r_lp_tautomer_probability>  (1) 
0.49997499999946832

>  <s_epik_Chemistry_Notes>  (1) 
This compound has an imine and may undergo hydrolysis.

>  <s_epik_cmdline>  (1) 
J2VwaWtfcHl0aG9uJywgJy1waHQnLCAnMS4wJywgJy1waCcsICc3LjQnLCAnLXRuJywgJzgnLCAnLW1hJywgJzUwMCcsICctaW1hZScsICc8aW5maWxlLm1hZT4nLCAnLW9tYWUnLCAnPG91dGZpbGUubWFlPic=

>  <s_epik_input>  (1) 
TzFbQ0gyXVtDSDJdTj1DMVtDQEhdKFtDSDJdW09IXSlDKD1PKU4oQyg9TylbQ0BIXTJGKVtDQEBIXShbQ0BASF0zW0NIM10pW0NIMl1bQ0BIXShbT0hdKVtDQEhdKFtDSDNdKVtDSDJdQyhcW0NIMl1bQ0BIXTIzKT1bQ0hdL1tDQEhdKFtDQEBIXTRPW0NIMl00KVtDSDJdW0NAQEhdKFtDQEBIXShGKVtPSF0pW0NIMl1DKD1PKVtOSF1bQ0gyXVtDSDNd

>  <s_glide_docking_method>  (1) 
confgen

>  <s_i_glide_gridfile>  (1) 
gpcr_drd2_6luq_protein_autoprepared_prepared

>  <s_lp_Force_Field>  (1) 
S-OPLS

>  <s_lp_Variant>  (1) 
DiffSBDD_66_num_sample_100-3

>  <s_m_source_file>  (1) 
generated__ligand_DiffSBDD_2026-05-06_prepared.sdf

>  <GenAI_Model>  (1) 
DiffSBDD

>  <Protein>  (1) 
generic_title2

$$$$
DiffSBDD_39_num_sample_100
     RDKit          3D

  0  0  0  0  0  0  0  0  0  0999 V3000
M  V30 BEGIN CTAB
M  V30 COUNTS 66 70 0 0 1
M  V30 BEGIN ATOM
M  V30 1 C 6.619686 5.033041 -20.212730 0 CFG=2
M  V30 2 N 9.035001 7.991457 -11.091682 0
M  V30 3 C 8.574084 5.706451 -11.833983 0
M  V30 4 C 7.034839 4.301990 -15.692700 0
M  V30 5 C 8.093079 0.333409 -18.288198 0 CFG=2
M  V30 6 C 9.284565 5.211503 -10.724774 0
M  V30 7 C 6.897887 -0.584857 -18.110486 0
M  V30 8 C 5.817378 2.497573 -18.691772 0
M  V30 9 C 6.241307 6.726964 -14.677128 0 CFG=2
M  V30 10 C 6.822383 5.769199 -17.713486 0
M  V30 11 N 7.674240 7.769404 -12.954953 0
M  V30 12 C 6.149344 6.694748 -17.095690 0
M  V30 13 C 7.636142 7.181358 -14.268830 0
M  V30 14 O 7.222156 0.424649 -17.150448 0
M  V30 15 C 7.176393 6.025128 -19.181101 0
M  V30 16 C 7.361327 3.677975 -20.260509 0
M  V30 17 C 9.693222 7.486736 -10.032843 0
M  V30 18 C 9.834834 6.115909 -9.804432 0
M  V30 19 C 8.032768 1.455858 -19.343164 0
M  V30 20 C 9.600928 -1.315424 -17.022890 0
M  V30 21 O 6.779311 5.619486 -21.488686 0
M  V30 22 C 7.294517 4.545493 -17.031158 0
M  V30 23 C 8.083564 3.505261 -17.824678 0
M  V30 24 C 7.308930 2.794998 -18.986261 0 CFG=2
M  V30 25 C 9.515407 -0.099582 -17.957336 0
M  V30 26 C 6.475074 4.745009 -13.221034 0
M  V30 27 C 7.970234 4.703447 -12.833147 0
M  V30 28 N 10.246472 8.398646 -9.141322 0
M  V30 29 C 8.445618 7.140388 -11.961108 0
M  V30 30 C 6.208373 5.190534 -14.683195 0 CFG=2
M  V30 31 C 5.867280 7.320661 -16.000571 0
M  V30 32 H 5.545813 4.914312 -20.080609 0
M  V30 33 H 7.408554 3.379634 -15.272166 0
M  V30 34 H 9.398929 4.147682 -10.576202 0
M  V30 35 H 5.992982 -0.391975 -18.681821 0
M  V30 36 H 7.026267 -1.602507 -17.748814 0
M  V30 37 H 5.390645 1.837885 -19.448011 0
M  V30 38 H 5.665364 2.025387 -17.728142 0
M  V30 39 H 5.195175 3.386492 -18.691657 0
M  V30 40 H 5.496430 7.100838 -13.971373 0
M  V30 41 H 8.429102 6.482059 -14.510318 0
M  V30 42 H 7.834778 8.052509 -14.882671 0
M  V30 43 H 8.263080 6.071621 -19.260881 0
M  V30 44 H 6.836097 7.026241 -19.456434 0
M  V30 45 H 6.944160 3.108228 -21.093280 0
M  V30 46 H 8.404594 3.855263 -20.527353 0
M  V30 47 H 10.371715 5.756772 -8.940008 0
M  V30 48 H 7.567162 1.024464 -20.230380 0
M  V30 49 H 9.051015 1.689582 -19.656015 0
M  V30 50 H 10.633896 -1.502279 -16.746502 0
M  V30 51 H 9.036482 -1.159158 -16.102141 0
M  V30 52 H 9.223122 -2.223332 -17.491750 0
M  V30 53 H 7.700586 5.760220 -21.645933 0
M  V30 54 H 8.996916 3.968466 -18.199644 0
M  V30 55 H 8.436062 2.753281 -17.119418 0
M  V30 56 H 10.046006 -0.322121 -18.883160 0
M  V30 57 H 10.027649 0.744844 -17.494341 0
M  V30 58 H 6.078690 3.733410 -13.122210 0
M  V30 59 H 5.908472 5.333353 -12.498395 0
M  V30 60 H 8.639153 4.615031 -13.686553 0
M  V30 61 H 8.097730 3.728639 -12.361486 0
M  V30 62 H 10.676984 8.094032 -8.282403 0
M  V30 63 H 5.163153 4.969290 -14.858666 0
M  V30 64 H 5.466620 8.324238 -16.002337 0
M  V30 65 H 10.071919 9.385950 -9.237904 0
M  V30 66 H 7.657171 8.776635 -12.922447 0
M  V30 END ATOM
M  V30 BEGIN BOND
M  V30 1 1 6 3
M  V30 2 1 7 5
M  V30 3 2 12 10
M  V30 4 1 13 9
M  V30 5 1 13 11
M  V30 6 1 14 5
M  V30 7 1 14 7
M  V30 8 1 15 1
M  V30 9 1 15 10
M  V30 10 1 16 1
M  V30 11 2 17 2
M  V30 12 2 18 6
M  V30 13 1 18 17
M  V30 14 1 5 19 CFG=3
M  V30 15 1 21 1
M  V30 16 2 22 4
M  V30 17 1 22 10
M  V30 18 1 23 22
M  V30 19 1 24 8 CFG=1
M  V30 20 1 24 16
M  V30 21 1 24 19
M  V30 22 1 24 23
M  V30 23 1 25 5
M  V30 24 1 25 20
M  V30 25 1 27 3
M  V30 26 1 27 26
M  V30 27 1 28 17
M  V30 28 1 29 2
M  V30 29 2 29 3
M  V30 30 1 29 11
M  V30 31 1 30 4
M  V30 32 1 30 9
M  V30 33 1 30 26
M  V30 34 1 31 9
M  V30 35 2 31 12
M  V30 36 1 1 32 CFG=1
M  V30 37 1 33 4
M  V30 38 1 34 6
M  V30 39 1 35 7
M  V30 40 1 36 7
M  V30 41 1 37 8
M  V30 42 1 38 8
M  V30 43 1 39 8
M  V30 44 1 9 40 CFG=1
M  V30 45 1 41 13
M  V30 46 1 42 13
M  V30 47 1 43 15
M  V30 48 1 44 15
M  V30 49 1 45 16
M  V30 50 1 46 16
M  V30 51 1 47 18
M  V30 52 1 48 19
M  V30 53 1 49 19
M  V30 54 1 50 20
M  V30 55 1 51 20
M  V30 56 1 52 20
M  V30 57 1 53 21
M  V30 58 1 54 23
M  V30 59 1 55 23
M  V30 60 1 56 25
M  V30 61 1 57 25
M  V30 62 1 58 26
M  V30 63 1 59 26
M  V30 64 1 60 27
M  V30 65 1 61 27
M  V30 66 1 62 28
M  V30 67 1 30 63 CFG=3
M  V30 68 1 64 31
M  V30 69 1 65 28
M  V30 70 1 66 11
M  V30 END BOND
M  V30 END CTAB
M  END
>  <i_epik_Tot_Q>  (1) 
0

>  <i_epik_Tot_abs_Q>  (1) 
0

>  <i_i_glide_confnum>  (1) 
5

>  <i_i_glide_lignum>  (1) 
69

>  <i_i_glide_posenum>  (1) 
281

>  <i_i_glide_rotatable_bonds>  (1) 
4

>  <i_lp_mmshare_version>  (1) 
72125

>  <i_m_source_file_index>  (1) 
40

>  <i_f3d_flags>  (1) 
0

>  <num_sample>  (1) 
100

>  <b_lp_Chiralities_Consistent>  (1) 
1

>  <r_epik_Charging_Adjusted_Penalty>  (1) 
0

>  <r_epik_Ionization_Penalty>  (1) 
0.1664306043943147

>  <r_epik_Ionization_Penalty_Charging>  (1) 
0

>  <r_epik_Ionization_Penalty_Neutral>  (1) 
0.1664306043943147

>  <r_epik_State_Penalty>  (1) 
-0

>  <r_glide_ring_energy>  (1) 
0

>  <r_i_docking_score>  (1) 
-3.926895518101948

>  <r_i_glide_ecoul>  (1) 
0.65639738873266995

>  <r_i_glide_eff_state_penalty>  (1) 
-0

>  <r_i_glide_einternal>  (1) 
3.3258532477747487

>  <r_i_glide_emodel>  (1) 
-24.244540708046529

>  <r_i_glide_emodel_strain>  (1) 
1.0399461459963391

>  <r_i_glide_energy>  (1) 
-21.541556776498076

>  <r_i_glide_erotb>  (1) 
0.22283361910969357

>  <r_i_glide_esite>  (1) 
-0.096636897229203739

>  <r_i_glide_evdw>  (1) 
-22.197954165230747

>  <r_i_glide_gscore>  (1) 
-3.926895518101948

>  <r_i_glide_gscore_strain>  (1) 
0

>  <r_i_glide_hbond>  (1) 
0

>  <r_i_glide_ligand_efficiency>  (1) 
-0.12667404897103057

>  <r_i_glide_ligand_efficiency_ln>  (1) 
-0.88563528422674387

>  <r_i_glide_ligand_efficiency_sa>  (1) 
-0.3979314065976754

>  <r_i_glide_lipo>  (1) 
-2.0747640880863623

>  <r_i_glide_metal>  (1) 
-0

>  <r_i_glide_rewards>  (1) 
-0.966890051944439

>  <r_lp_Energy>  (1) 
40.513892999999996

>  <r_lp_tautomer_probability>  (1) 
1

>  <s_epik_cmdline>  (1) 
J2VwaWtfcHl0aG9uJywgJy1waHQnLCAnMS4wJywgJy1waCcsICc3LjQnLCAnLXRuJywgJzgnLCAnLW1hJywgJzUwMCcsICctaW1hZScsICc8aW5maWxlLm1hZT4nLCAnLW9tYWUnLCAnPG91dGZpbGUubWFlPic=

>  <s_epik_input>  (1) 
TzFbQ0gyXVtDQEBdMShbQ0gyXVtDSDNdKVtDSDJdW0NAQF0oW0NIM10pKFtDSDJdMilbQ0gyXVtDQEhdKFtPSF0pW0NIMl1DKD1DPVtDSF0zKUMyPVtDSF1bQ0BASF0oW0NIMl1bQ0gyXTQpW0NASF0zW0NIMl1bTkhdQyhbQ0BIXTQ1KT1OL0MoPU4vW0hdKVtDSF09W0NIXTU=

>  <s_glide_docking_method>  (1) 
confgen

>  <s_i_glide_gridfile>  (1) 
gpcr_drd2_6luq_protein_autoprepared_prepared

>  <s_lp_Force_Field>  (1) 
S-OPLS

>  <s_lp_Variant>  (1) 
DiffSBDD_39_num_sample_100-1

>  <s_m_source_file>  (1) 
generated__ligand_DiffSBDD_2026-05-06_prepared.sdf

>  <GenAI_Model>  (1) 
DiffSBDD

>  <Protein>  (1) 
generic_title2

$$$$
DiffSBDD_1_num_sample_100
     RDKit          3D

  0  0  0  0  0  0  0  0  0  0999 V3000
M  V30 BEGIN CTAB
M  V30 COUNTS 36 37 0 0 1
M  V30 BEGIN ATOM
M  V30 1 C 5.672828 5.852163 -15.373289 0
M  V30 2 C 8.989342 5.286096 -13.436998 0 CFG=2
M  V30 3 C 8.539823 4.092648 -12.573238 0 CFG=1
M  V30 4 Cl 9.434838 4.169301 -11.048874 0
M  V30 5 O 5.454108 6.655009 -11.988435 0
M  V30 6 C 7.037919 4.022440 -12.254113 0
M  V30 7 C 8.519760 7.087014 -11.871914 0
M  V30 8 C 6.156530 4.379952 -13.450576 0
M  V30 9 C 7.434845 7.785806 -12.675435 0
M  V30 10 C 6.523926 5.745361 -14.089287 0 CFG=1
M  V30 11 O 5.706356 5.367435 -18.487236 0
M  V30 12 O 9.448682 6.408907 -12.691427 0
M  V30 13 P 5.029279 6.579064 -17.977209 0
M  V30 14 C 7.992738 5.649988 -14.544919 0
M  V30 15 O 5.002165 7.778190 -18.835749 0 CHG=-1
M  V30 16 C 5.838579 7.038946 -16.341883 0
M  V30 17 C 6.228376 6.959018 -13.136768 0 CFG=1
M  V30 18 H 4.632481 5.769731 -15.099599 0
M  V30 19 H 5.889920 4.969346 -15.962041 0
M  V30 20 H 9.897933 4.965698 -13.945270 0
M  V30 21 H 8.828255 3.167816 -13.071861 0
M  V30 22 H 5.930003 6.942692 -11.216885 0
M  V30 23 H 6.772459 3.020149 -11.924433 0
M  V30 24 H 6.807187 4.661789 -11.406549 0
M  V30 25 H 9.093101 7.851076 -11.348227 0
M  V30 26 H 8.093861 6.463371 -11.089284 0
M  V30 27 H 6.251007 3.583737 -14.190627 0
M  V30 28 H 5.107437 4.365094 -13.152595 0
M  V30 29 H 7.047962 8.570969 -12.027798 0
M  V30 30 H 7.864261 8.305508 -13.527660 0
M  V30 31 H 8.286074 6.568658 -15.033240 0
M  V30 32 H 8.079491 4.888751 -15.320131 0
M  V30 33 H 5.412234 7.956443 -15.938708 0
M  V30 34 H 6.884044 7.229767 -16.554725 0
M  V30 35 H 5.583497 7.653334 -13.674550 0
M  V30 36 H 3.688486 6.246971 -17.635379 0
M  V30 END ATOM
M  V30 BEGIN BOND
M  V30 1 1 3 2
M  V30 2 1 4 3
M  V30 3 1 6 3
M  V30 4 1 8 6
M  V30 5 1 9 7
M  V30 6 1 10 1 CFG=3
M  V30 7 1 10 8
M  V30 8 1 12 2
M  V30 9 1 12 7
M  V30 10 2 13 11
M  V30 11 1 14 2
M  V30 12 1 14 10
M  V30 13 1 15 13
M  V30 14 1 16 1
M  V30 15 1 16 13
M  V30 16 1 17 5
M  V30 17 1 17 9
M  V30 18 1 17 10
M  V30 19 1 18 1
M  V30 20 1 19 1
M  V30 21 1 2 20 CFG=3
M  V30 22 1 3 21 CFG=3
M  V30 23 1 22 5
M  V30 24 1 23 6
M  V30 25 1 24 6
M  V30 26 1 25 7
M  V30 27 1 26 7
M  V30 28 1 27 8
M  V30 29 1 28 8
M  V30 30 1 29 9
M  V30 31 1 30 9
M  V30 32 1 31 14
M  V30 33 1 32 14
M  V30 34 1 33 16
M  V30 35 1 34 16
M  V30 36 1 17 35 CFG=3
M  V30 37 1 36 13
M  V30 END BOND
M  V30 END CTAB
M  END
>  <i_epik_Tot_Q>  (1) 
-1

>  <i_epik_Tot_abs_Q>  (1) 
1

>  <i_i_glide_confnum>  (1) 
6

>  <i_i_glide_lignum>  (1) 
3

>  <i_i_glide_posenum>  (1) 
183

>  <i_i_glide_rotatable_bonds>  (1) 
4

>  <i_lp_mmshare_version>  (1) 
72125

>  <i_m_source_file_index>  (1) 
2

>  <i_f3d_flags>  (1) 
0

>  <num_sample>  (1) 
100

>  <b_lp_Chiralities_Consistent>  (1) 
1

>  <r_epik_Charging_Adjusted_Penalty>  (1) 
1.9889919217114435e-05

>  <r_epik_Ionization_Penalty>  (1) 
1.9962460467374035e-05

>  <r_epik_Ionization_Penalty_Charging>  (1) 
1.9889919217114435e-05

>  <r_epik_Ionization_Penalty_Neutral>  (1) 
7.2541250259600902e-08

>  <r_epik_State_Penalty>  (1) 
-0

>  <r_glide_ring_energy>  (1) 
0

>  <r_i_docking_score>  (1) 
-3.9255312062525363

>  <r_i_glide_ecoul>  (1) 
-1.0537066147035126

>  <r_i_glide_eff_state_penalty>  (1) 
-0

>  <r_i_glide_einternal>  (1) 
6.549006056472316

>  <r_i_glide_emodel>  (1) 
-18.432299350960953

>  <r_i_glide_emodel_strain>  (1) 
1.312246020022684

>  <r_i_glide_energy>  (1) 
-17.869134588599017

>  <r_i_glide_erotb>  (1) 
0.45571271474972769

>  <r_i_glide_esite>  (1) 
0

>  <r_i_glide_evdw>  (1) 
-16.815427973895506

>  <r_i_glide_gscore>  (1) 
-3.9255312062525363

>  <r_i_glide_gscore_strain>  (1) 
0

>  <r_i_glide_hbond>  (1) 
-0.09118231407321481

>  <r_i_glide_ligand_efficiency>  (1) 
-0.23091360036779626

>  <r_i_glide_ligand_efficiency_ln>  (1) 
-1.0240836744293058

>  <r_i_glide_ligand_efficiency_sa>  (1) 
-0.59374388965832725

>  <r_i_glide_lipo>  (1) 
-1.422225966280289

>  <r_i_glide_metal>  (1) 
-0

>  <r_i_glide_rewards>  (1) 
-1.8690082497484577

>  <r_lp_Energy>  (1) 
23.177799999999998

>  <r_lp_tautomer_probability>  (1) 
1

>  <s_epik_cmdline>  (1) 
J2VwaWtfcHl0aG9uJywgJy1waHQnLCAnMS4wJywgJy1waCcsICc3LjQnLCAnLXRuJywgJzgnLCAnLW1hJywgJzUwMCcsICctaW1hZScsICc8aW5maWxlLm1hZT4nLCAnLW9tYWUnLCAnPG91dGZpbGUubWFlPic=

>  <s_epik_input>  (1) 
W09IXVAoW09IXSlbQ0gyXVtDSDJdW0NAQF0xMltDSDJdW0NIMl1bQ0BIXShDbClbQ0BASF0oW0NIMl0xKU9bQ0gyXVtDSDJdW0NAQEhdMltPSF0=

>  <s_glide_docking_method>  (1) 
confgen

>  <s_i_glide_gridfile>  (1) 
gpcr_drd2_6luq_protein_autoprepared_prepared

>  <s_lp_Force_Field>  (1) 
S-OPLS

>  <s_lp_Variant>  (1) 
DiffSBDD_1_num_sample_100-1

>  <s_m_source_file>  (1) 
generated__ligand_DiffSBDD_2026-05-06_prepared.sdf

>  <GenAI_Model>  (1) 
DiffSBDD

>  <Protein>  (1) 
generic_title2

$$$$
DiffSBDD_0_num_sample_100
     RDKit          3D

  0  0  0  0  0  0  0  0  0  0999 V3000
M  V30 BEGIN CTAB
M  V30 COUNTS 105 110 0 0 1
M  V30 BEGIN ATOM
M  V30 1 C 14.783641 10.167574 -19.126541 0
M  V30 2 C 6.855421 2.947391 -19.088834 0
M  V30 3 O 10.220032 1.671094 -19.649890 0
M  V30 4 C 10.434753 1.560451 -21.041396 0 CFG=1
M  V30 5 S 4.857451 6.825817 -18.099723 0
M  V30 6 C 14.067294 7.812764 -19.975578 0 CFG=1
M  V30 7 C 13.301115 7.035800 -23.057552 0
M  V30 8 C 11.634973 4.193729 -21.908805 0 CFG=2
M  V30 9 C 5.720942 -1.740717 -17.484565 0
M  V30 10 C 12.137165 6.723883 -22.109557 0
M  V30 11 C 13.873203 6.345052 -19.463455 0 CFG=1
M  V30 12 C 14.693434 6.984145 -22.414341 0
M  V30 13 C 7.424946 6.057408 -18.606549 0 CFG=1
M  V30 14 O 5.162091 7.770298 -19.263014 0
M  V30 15 C 9.076519 5.438540 -19.775851 0 CFG=2
M  V30 16 N 5.832298 -4.187535 -17.091240 0 CHG=1
M  V30 17 C 15.855681 6.732792 -17.889552 0
M  V30 18 O 4.634748 7.766802 -16.694774 0
M  V30 19 O 10.580781 7.225572 -19.491695 0
M  V30 20 C 7.538891 5.328822 -19.971134 0 CFG=1
M  V30 21 C 13.063227 5.256114 -20.235078 0
M  V30 22 C 5.811491 -6.602120 -16.562711 0
M  V30 23 O 9.503588 6.693391 -20.307519 0
M  V30 24 O 9.913107 4.332913 -20.121077 0
M  V30 25 S 13.128433 3.626368 -19.624812 0
M  V30 26 C 15.255498 5.826086 -18.974200 0
M  V30 27 C 5.843463 1.789240 -19.216439 0
M  V30 28 C 7.077800 3.442873 -21.647252 0
M  V30 29 C 5.335144 -0.612482 -18.457760 0
M  V30 30 C 6.086110 0.696544 -18.162049 0
M  V30 31 C 12.511816 3.056507 -21.266894 0 CFG=1
M  V30 32 O 8.234388 -5.035459 -17.945204 0
M  V30 33 C 5.918592 -5.542664 -17.671913 0 CFG=2
M  V30 34 C 6.789200 4.001749 -20.226964 0 CFG=1
M  V30 35 C 5.328885 -3.134846 -17.996738 0
M  V30 36 C 9.635319 2.630831 -21.830618 0 CFG=1
M  V30 37 C 7.268828 -5.695770 -18.393029 0
M  V30 38 C 11.935330 1.635091 -21.324490 0
M  V30 39 N 15.944568 8.130642 -18.352276 0 CHG=1
M  V30 40 O 7.303758 -6.468785 -19.373652 0 CHG=-1
M  V30 41 N 6.289333 5.932910 -17.695258 0
M  V30 42 C 14.647022 8.671014 -18.810640 0 CFG=1
M  V30 43 C 8.118773 2.310359 -21.787675 0
M  V30 44 C 12.323683 5.417233 -21.343900 0
M  V30 45 C 14.919213 7.982693 -21.269018 0
M  V30 46 C 10.118915 4.075041 -21.515994 0 CFG=2
M  V30 47 C 8.790696 5.465553 -18.259719 0
M  V30 48 H 13.836369 10.565177 -19.478022 0
M  V30 49 H 15.533238 10.369924 -19.892071 0
M  V30 50 H 15.055487 10.736785 -18.236939 0
M  V30 51 H 7.866692 2.553831 -19.017871 0
M  V30 52 H 6.669357 3.411887 -18.124361 0
M  V30 53 H 10.312736 2.588788 -19.425082 0
M  V30 54 H 10.092711 0.566009 -21.332116 0
M  V30 55 H 13.096804 8.268613 -20.123093 0
M  V30 56 H 13.140950 8.010896 -23.518665 0
M  V30 57 H 13.281346 6.310593 -23.869637 0
M  V30 58 H 11.745802 4.164617 -22.993599 0
M  V30 59 H 5.274553 -1.555693 -16.506058 0
M  V30 60 H 6.801751 -1.726520 -17.332839 0
M  V30 61 H 11.878320 7.578657 -21.507486 0
M  V30 62 H 11.240997 6.607975 -22.719942 0
M  V30 63 H 13.260743 6.441050 -18.565394 0
M  V30 64 H 14.927449 5.971283 -22.088681 0
M  V30 65 H 15.425207 7.197345 -23.194463 0
M  V30 66 H 7.556628 7.129866 -18.760566 0
M  V30 67 H 5.247455 -4.214912 -16.250419 0
M  V30 68 H 16.850739 6.383586 -17.611944 0
M  V30 69 H 15.242387 6.688880 -16.988111 0
M  V30 70 H 4.542817 8.672478 -16.957226 0
M  V30 71 H 10.094949 7.755065 -18.878423 0
M  V30 72 H 7.240908 6.039356 -20.744167 0
M  V30 73 H 5.857147 -7.609923 -16.977341 0
M  V30 74 H 4.867075 -6.511219 -16.024704 0
M  V30 75 H 6.618280 -6.505926 -15.834182 0
M  V30 76 H 15.195073 4.832669 -18.534747 0
M  V30 77 H 15.941948 5.736441 -19.816641 0
M  V30 78 H 4.826673 2.170106 -19.125028 0
M  V30 79 H 5.900066 1.342715 -20.207981 0
M  V30 80 H 7.294042 4.248534 -22.349155 0
M  V30 81 H 6.136288 3.025304 -22.007500 0
M  V30 82 H 5.572792 -0.923656 -19.476091 0
M  V30 83 H 4.256790 -0.447754 -18.431418 0
M  V30 84 H 5.819987 1.068899 -17.172102 0
M  V30 85 H 7.154702 0.478671 -18.127988 0
M  V30 86 H 13.429249 3.017203 -21.856930 0
M  V30 87 H 5.097445 -5.687845 -18.376500 0
M  V30 88 H 5.737635 4.291363 -20.257685 0
M  V30 89 H 4.246044 -3.226343 -18.092629 0
M  V30 90 H 5.755151 -3.282846 -18.990053 0
M  V30 91 H 9.901848 2.483755 -22.879089 0
M  V30 92 H 12.491063 0.964726 -20.667317 0
M  V30 93 H 12.097042 1.253119 -22.333440 0
M  V30 94 H 16.291062 8.704936 -17.597319 0
M  V30 95 H 6.097628 4.974485 -17.442998 0
M  V30 96 H 13.955173 8.601663 -17.968226 0
M  V30 97 H 7.930862 1.535180 -21.048786 0
M  V30 98 H 7.889884 1.801016 -22.725011 0
M  V30 99 H 14.768457 8.988589 -21.662640 0
M  V30 100 H 15.977868 7.928882 -21.017342 0
M  V30 101 H 9.556044 4.788293 -22.119509 0
M  V30 102 H 9.418739 6.104638 -17.641136 0
M  V30 103 H 8.735043 4.470352 -17.819085 0
M  V30 104 H 6.785648 -3.963980 -16.823165 0
M  V30 105 H 16.595258 8.176985 -19.123050 0
M  V30 END ATOM
M  V30 BEGIN BOND
M  V30 1 1 4 3
M  V30 2 1 10 7
M  V30 3 1 11 6
M  V30 4 1 12 7
M  V30 5 2 14 5
M  V30 6 1 5 18 CFG=1
M  V30 7 1 20 13
M  V30 8 1 20 15
M  V30 9 1 21 11
M  V30 10 1 15 23 CFG=3
M  V30 11 1 23 19
M  V30 12 1 24 15
M  V30 13 1 25 21
M  V30 14 1 26 11
M  V30 15 1 26 17
M  V30 16 1 27 2
M  V30 17 1 29 9
M  V30 18 1 30 27
M  V30 19 1 30 29
M  V30 20 1 31 8
M  V30 21 1 31 25
M  V30 22 1 33 16
M  V30 23 1 33 22
M  V30 24 1 34 2
M  V30 25 1 34 20
M  V30 26 1 34 28
M  V30 27 1 35 9
M  V30 28 1 35 16
M  V30 29 1 36 4
M  V30 30 2 37 32
M  V30 31 1 37 33
M  V30 32 1 38 4
M  V30 33 1 38 31
M  V30 34 1 39 17
M  V30 35 1 40 37
M  V30 36 1 41 5
M  V30 37 1 41 13
M  V30 38 1 42 1
M  V30 39 1 42 6
M  V30 40 1 42 39
M  V30 41 1 43 28
M  V30 42 1 43 36
M  V30 43 1 44 8
M  V30 44 1 44 10
M  V30 45 2 44 21
M  V30 46 1 45 6
M  V30 47 1 45 12
M  V30 48 1 46 8
M  V30 49 1 46 24
M  V30 50 1 46 36
M  V30 51 1 47 13
M  V30 52 1 47 15
M  V30 53 1 48 1
M  V30 54 1 49 1
M  V30 55 1 50 1
M  V30 56 1 51 2
M  V30 57 1 52 2
M  V30 58 1 53 3
M  V30 59 1 4 54 CFG=3
M  V30 60 1 6 55 CFG=3
M  V30 61 1 56 7
M  V30 62 1 57 7
M  V30 63 1 8 58 CFG=3
M  V30 64 1 59 9
M  V30 65 1 60 9
M  V30 66 1 61 10
M  V30 67 1 62 10
M  V30 68 1 11 63 CFG=1
M  V30 69 1 64 12
M  V30 70 1 65 12
M  V30 71 1 13 66 CFG=3
M  V30 72 1 67 16
M  V30 73 1 68 17
M  V30 74 1 69 17
M  V30 75 1 70 18
M  V30 76 1 71 19
M  V30 77 1 20 72 CFG=3
M  V30 78 1 73 22
M  V30 79 1 74 22
M  V30 80 1 75 22
M  V30 81 1 76 26
M  V30 82 1 77 26
M  V30 83 1 78 27
M  V30 84 1 79 27
M  V30 85 1 80 28
M  V30 86 1 81 28
M  V30 87 1 82 29
M  V30 88 1 83 29
M  V30 89 1 84 30
M  V30 90 1 85 30
M  V30 91 1 31 86 CFG=3
M  V30 92 1 33 87 CFG=3
M  V30 93 1 34 88 CFG=3
M  V30 94 1 89 35
M  V30 95 1 90 35
M  V30 96 1 36 91 CFG=3
M  V30 97 1 92 38
M  V30 98 1 93 38
M  V30 99 1 94 39
M  V30 100 1 95 41
M  V30 101 1 42 96 CFG=1
M  V30 102 1 97 43
M  V30 103 1 98 43
M  V30 104 1 99 45
M  V30 105 1 100 45
M  V30 106 1 46 101 CFG=3
M  V30 107 1 102 47
M  V30 108 1 103 47
M  V30 109 1 104 16
M  V30 110 1 105 39
M  V30 END BOND
M  V30 END CTAB
M  END
>  <i_epik_Tot_Q>  (1) 
1

>  <i_epik_Tot_abs_Q>  (1) 
3

>  <i_i_glide_confnum>  (1) 
1732

>  <i_i_glide_lignum>  (1) 
2

>  <i_i_glide_posenum>  (1) 
396

>  <i_i_glide_rotatable_bonds>  (1) 
15

>  <i_lp_mmshare_version>  (1) 
72125

>  <i_m_source_file_index>  (1) 
1

>  <i_f3d_flags>  (1) 
0

>  <num_sample>  (1) 
100

>  <b_lp_Chiralities_Consistent>  (1) 
1

>  <r_epik_Charging_Adjusted_Penalty>  (1) 
0.0032360822409407838

>  <r_epik_Ionization_Penalty>  (1) 
0.0033274947784888795

>  <r_epik_Ionization_Penalty_Charging>  (1) 
0.0032360822409407838

>  <r_epik_Ionization_Penalty_Neutral>  (1) 
9.1412537548095675e-05

>  <r_epik_State_Penalty>  (1) 
-0

>  <r_glide_ring_energy>  (1) 
0

>  <r_i_docking_score>  (1) 
-3.9195104243928993

>  <r_i_glide_ecoul>  (1) 
-8.20023035264947

>  <r_i_glide_eff_state_penalty>  (1) 
-0

>  <r_i_glide_einternal>  (1) 
3.6201030975259236

>  <r_i_glide_emodel>  (1) 
-46.594483581192776

>  <r_i_glide_emodel_strain>  (1) 
1.3007003598540052

>  <r_i_glide_energy>  (1) 
-39.591225080507613

>  <r_i_glide_erotb>  (1) 
0.30458455882301022

>  <r_i_glide_esite>  (1) 
-0.074946212547454746

>  <r_i_glide_evdw>  (1) 
-31.390994727858146

>  <r_i_glide_gscore>  (1) 
-3.9195104243928993

>  <r_i_glide_gscore_strain>  (1) 
0

>  <r_i_glide_hbond>  (1) 
-0.20000000000000001

>  <r_i_glide_ligand_efficiency>  (1) 
-0.083393838816870194

>  <r_i_glide_ligand_efficiency_ln>  (1) 
-0.80812188540632535

>  <r_i_glide_ligand_efficiency_sa>  (1) 
-0.30095386044520384

>  <r_i_glide_lipo>  (1) 
-0.7241548665466353

>  <r_i_glide_metal>  (1) 
-0

>  <r_i_glide_rewards>  (1) 
-0.4254096148314917

>  <r_lp_Energy>  (1) 
59.080839999999995

>  <r_lp_tautomer_probability>  (1) 
1

>  <s_epik_cmdline>  (1) 
J2VwaWtfcHl0aG9uJywgJy1waHQnLCAnMS4wJywgJy1waCcsICc3LjQnLCAnLXRuJywgJzgnLCAnLW1hJywgJzUwMCcsICctaW1hZScsICc8aW5maWxlLm1hZT4nLCAnLW9tYWUnLCAnPG91dGZpbGUubWFlPic=

>  <s_epik_input>  (1) 
W0NIM11bQ0BASF0xW05IXVtDSDJdW0NIMl1bQ0BIXTJbQ0BASF0xW0NIMl1bQ0gyXVtDSDJdW0NIMl1DMz1DMlNbQ0BASF0oW0NIMl1bQ0BIXTRbT0hdKVtDQEhdM1tDQEhdKE81KVtDQEBIXTRbQ0gyXVtDSDJdW0NASF0oW0NASF0oW0NAXTU2T1tPSF0pW0NASF0oW0NIMl02KVtOSF1bU0BdKD1PKVtPSF0pW0NIMl1bQ0gyXVtDSDJdW0NIMl1bQ0gyXVtDSDJdW05IXVtDQEhdKFtDSDNdKUMoPU8pW09IXQ==

>  <s_glide_docking_method>  (1) 
confgen

>  <s_i_glide_gridfile>  (1) 
gpcr_drd2_6luq_protein_autoprepared_prepared

>  <s_lp_Force_Field>  (1) 
S-OPLS

>  <s_lp_Variant>  (1) 
DiffSBDD_0_num_sample_100-2

>  <s_m_source_file>  (1) 
generated__ligand_DiffSBDD_2026-05-06_prepared.sdf

>  <GenAI_Model>  (1) 
DiffSBDD

>  <Protein>  (1) 
generic_title2

$$$$
DiffSBDD_36_num_sample_100
     RDKit          3D

  0  0  0  0  0  0  0  0  0  0999 V3000
M  V30 BEGIN CTAB
M  V30 COUNTS 102 107 0 0 1
M  V30 BEGIN ATOM
M  V30 1 C 12.172409 9.297371 -8.982305 0
M  V30 2 O 9.286285 5.326991 -16.610942 0
M  V30 3 C 7.741392 4.498225 -10.379181 0
M  V30 4 C 6.193679 -5.210132 -19.010381 0
M  V30 5 C 10.115467 0.590368 -19.683028 0 CFG=1
M  V30 6 O 8.221739 -3.158911 -19.062387 0
M  V30 7 C 7.453528 4.418656 -13.752504 0
M  V30 8 C 9.434901 6.867690 -10.046336 0
M  V30 9 C 8.579454 6.697706 -11.325192 0 CFG=1
M  V30 10 C 8.875911 6.183205 -8.829211 0 CFG=1
M  V30 11 C 7.961635 5.861037 -18.452359 0
M  V30 12 C 9.622707 5.787920 -13.237569 0
M  V30 13 C 7.643376 5.265619 -9.092848 0
M  V30 14 C 11.351804 8.049476 -8.870976 0
M  V30 15 S 9.204601 -0.681196 -17.424308 0
M  V30 16 C 11.494192 7.318614 -7.731209 0
M  V30 17 C 12.349402 4.840040 -17.992176 0
M  V30 18 C 10.889654 6.044077 -7.382622 0
M  V30 19 C 6.759551 -1.256679 -18.696513 0
M  V30 20 C 9.391282 5.680816 -17.957227 0 CFG=2
M  V30 21 O 8.056615 0.649775 -21.057974 0
M  V30 22 C 5.509426 3.295833 -21.942732 0
M  V30 23 C 10.530153 -0.074659 -18.389829 0
M  V30 24 C 5.865429 -3.743463 -18.865364 0
M  V30 25 C 7.028302 1.586588 -20.742120 0
M  V30 26 C 9.120571 7.105057 -12.689163 0
M  V30 27 O 12.420673 6.136704 -18.589824 0
M  V30 28 C 5.187129 4.077793 -20.661870 0
M  V30 29 C 8.606942 4.739354 -12.750909 0 CFG=2
M  V30 30 C 9.449849 3.521561 -12.380307 0
M  V30 31 S 4.309732 -3.170724 -18.692014 0
M  V30 32 O 9.974437 4.697941 -18.735142 0
M  V30 33 C 6.858875 2.557612 -21.920674 0
M  V30 34 C 11.337302 2.874283 -19.196045 0
M  V30 35 C 11.807162 -0.229030 -18.008345 0
M  V30 36 N 7.974300 5.365351 -11.554673 0 CFG=1 CHG=1
M  V30 37 C 7.929505 5.174182 -16.212736 0 CFG=1
M  V30 38 C 8.725844 -0.037084 -19.994772 0 CFG=2
M  V30 39 C 7.071942 -2.759795 -18.891777 0
M  V30 40 O 12.283489 5.962910 -17.105697 0
M  V30 41 C 10.028842 2.116627 -19.503596 0
M  V30 42 O 8.049804 2.869380 -15.504234 0
M  V30 43 C 7.949708 -0.266008 -18.659416 0 CFG=2
M  V30 44 C 9.775662 5.524903 -7.890817 0
M  V30 45 C 10.500696 7.693969 -10.022334 0
M  V30 46 C 11.091621 4.003237 -18.189920 0 CFG=1
M  V30 47 C 7.198425 4.927646 -17.532120 0
M  V30 48 C 7.836262 4.038327 -15.187429 0
M  V30 49 H 12.074639 9.773022 -9.955715 0
M  V30 50 H 11.834890 9.988560 -8.211923 0
M  V30 51 H 13.221936 9.045545 -8.819712 0
M  V30 52 H 8.550223 3.816515 -10.231053 0
M  V30 53 H 6.842331 3.902820 -10.538316 0
M  V30 54 H 6.894765 -5.512061 -18.232435 0
M  V30 55 H 5.298631 -5.828524 -18.919275 0
M  V30 56 H 10.825664 0.351989 -20.477129 0
M  V30 57 H 6.786524 5.278691 -13.827942 0
M  V30 58 H 7.765940 7.386818 -11.157095 0
M  V30 59 H 8.533196 6.987338 -8.189014 0
M  V30 60 H 7.661254 6.896319 -18.292997 0
M  V30 61 H 7.876958 5.623684 -19.512269 0
M  V30 62 H 10.601467 5.631996 -12.783111 0
M  V30 63 H 9.793645 5.769230 -14.307558 0
M  V30 64 H 7.476562 4.572393 -8.263938 0
M  V30 65 H 6.695311 5.769214 -9.169874 0
M  V30 66 H 12.200549 7.711224 -7.016201 0
M  V30 67 H 13.291385 4.295197 -17.936786 0
M  V30 68 H 11.400234 5.458261 -6.630537 0
M  V30 69 H 6.215525 -1.153507 -17.757003 0
M  V30 70 H 6.072983 -0.945921 -19.482920 0
M  V30 71 H 9.992731 6.569655 -18.072708 0
M  V30 72 H 5.505732 3.989119 -22.784075 0
M  V30 73 H 4.719492 2.573956 -22.144588 0
M  V30 74 H 6.098050 1.050839 -20.548678 0
M  V30 75 H 7.261939 2.171286 -19.852062 0
M  V30 76 H 9.860634 7.897347 -12.691643 0
M  V30 77 H 8.287442 7.456465 -13.300023 0
M  V30 78 H 4.216842 4.567647 -20.747056 0
M  V30 79 H 5.141646 3.424703 -19.790790 0
M  V30 80 H 5.930039 4.848983 -20.467839 0
M  V30 81 H 10.221439 3.369323 -13.091499 0
M  V30 82 H 10.061136 3.769228 -11.518862 0
M  V30 83 H 8.885990 2.598868 -12.227872 0
M  V30 84 H 6.645210 -5.401820 -19.983583 0
M  V30 85 H 7.680122 3.276742 -21.909460 0
M  V30 86 H 6.950596 2.002148 -22.856152 0
M  V30 87 H 12.105370 2.225747 -18.787580 0
M  V30 88 H 11.755598 3.271862 -20.122723 0
M  V30 89 H 12.619231 0.132127 -18.621175 0
M  V30 90 H 12.055786 -0.721813 -17.091766 0
M  V30 91 H 7.590421 6.109725 -15.768637 0
M  V30 92 H 8.950076 -1.020422 -20.406657 0
M  V30 93 H 9.607304 2.564655 -20.402237 0
M  V30 94 H 9.306859 2.307067 -18.709245 0
M  V30 95 H 6.848520 3.606037 -13.347987 0
M  V30 96 H 7.558455 0.685009 -18.299800 0
M  V30 97 H 9.444310 4.569253 -7.530845 0
M  V30 98 H 10.740142 8.192387 -10.938060 0
M  V30 99 H 10.824440 3.544476 -17.236464 0
M  V30 100 H 7.298294 3.892461 -17.863738 0
M  V30 101 H 6.138940 5.177935 -17.485143 0
M  V30 102 H 7.044494 5.613875 -11.857406 0
M  V30 END ATOM
M  V30 BEGIN BOND
M  V30 1 1 9 8
M  V30 2 1 10 8
M  V30 3 1 13 3
M  V30 4 1 13 10
M  V30 5 1 14 1
M  V30 6 2 16 14
M  V30 7 1 18 16
M  V30 8 1 20 2
M  V30 9 1 20 11
M  V30 10 1 23 5
M  V30 11 1 23 15
M  V30 12 1 24 4
M  V30 13 1 25 21
M  V30 14 1 26 9
M  V30 15 1 26 12
M  V30 16 1 27 17
M  V30 17 1 28 22
M  V30 18 1 29 7 CFG=3
M  V30 19 1 29 12
M  V30 20 1 30 29
M  V30 21 2 31 24
M  V30 22 1 32 20
M  V30 23 1 33 22
M  V30 24 1 33 25
M  V30 25 2 35 23
M  V30 26 1 36 3
M  V30 27 1 36 9
M  V30 28 1 36 29
M  V30 29 1 37 2
M  V30 30 1 38 5
M  V30 31 1 38 21
M  V30 32 2 39 6
M  V30 33 1 39 19
M  V30 34 1 39 24
M  V30 35 1 40 17
M  V30 36 1 40 27
M  V30 37 1 41 5
M  V30 38 1 41 34
M  V30 39 1 43 15
M  V30 40 1 43 19
M  V30 41 1 43 38
M  V30 42 1 44 10
M  V30 43 2 44 18
M  V30 44 2 45 8
M  V30 45 1 45 14
M  V30 46 1 46 17
M  V30 47 1 46 32
M  V30 48 1 46 34
M  V30 49 1 47 11
M  V30 50 1 47 37
M  V30 51 1 48 7
M  V30 52 1 48 37
M  V30 53 2 48 42
M  V30 54 1 49 1
M  V30 55 1 50 1
M  V30 56 1 51 1
M  V30 57 1 52 3
M  V30 58 1 53 3
M  V30 59 1 54 4
M  V30 60 1 55 4
M  V30 61 1 5 56 CFG=3
M  V30 62 1 57 7
M  V30 63 1 9 58 CFG=1
M  V30 64 1 10 59 CFG=1
M  V30 65 1 60 11
M  V30 66 1 61 11
M  V30 67 1 62 12
M  V30 68 1 63 12
M  V30 69 1 64 13
M  V30 70 1 65 13
M  V30 71 1 66 16
M  V30 72 1 67 17
M  V30 73 1 68 18
M  V30 74 1 69 19
M  V30 75 1 70 19
M  V30 76 1 20 71 CFG=1
M  V30 77 1 72 22
M  V30 78 1 73 22
M  V30 79 1 74 25
M  V30 80 1 75 25
M  V30 81 1 76 26
M  V30 82 1 77 26
M  V30 83 1 78 28
M  V30 84 1 79 28
M  V30 85 1 80 28
M  V30 86 1 81 30
M  V30 87 1 82 30
M  V30 88 1 83 30
M  V30 89 1 84 4
M  V30 90 1 85 33
M  V30 91 1 86 33
M  V30 92 1 87 34
M  V30 93 1 88 34
M  V30 94 1 89 35
M  V30 95 1 90 35
M  V30 96 1 37 91 CFG=1
M  V30 97 1 38 92 CFG=3
M  V30 98 1 93 41
M  V30 99 1 94 41
M  V30 100 1 95 7
M  V30 101 1 43 96 CFG=1
M  V30 102 1 97 44
M  V30 103 1 98 45
M  V30 104 1 46 99 CFG=1
M  V30 105 1 100 47
M  V30 106 1 101 47
M  V30 107 1 36 102 CFG=3
M  V30 END BOND
M  V30 END CTAB
M  END
>  <i_epik_Tot_Q>  (1) 
1

>  <i_epik_Tot_abs_Q>  (1) 
1

>  <i_i_glide_confnum>  (1) 
11648

>  <i_i_glide_lignum>  (1) 
65

>  <i_i_glide_posenum>  (1) 
232

>  <i_i_glide_rotatable_bonds>  (1) 
16

>  <i_lp_mmshare_version>  (1) 
72125

>  <i_m_source_file_index>  (1) 
37

>  <i_f3d_flags>  (1) 
0

>  <num_sample>  (1) 
100

>  <b_lp_Chiralities_Consistent>  (1) 
1

>  <r_epik_Charging_Adjusted_Penalty>  (1) 
0.91210119875661555

>  <r_epik_Ionization_Penalty>  (1) 
0.45605060116919061

>  <r_epik_Ionization_Penalty_Charging>  (1) 
0.45605059937830777

>  <r_epik_Ionization_Penalty_Neutral>  (1) 
1.7908828364046034e-09

>  <r_epik_State_Penalty>  (1) 
0.45605059937830777

>  <r_glide_ring_energy>  (1) 
0.90833713593568233

>  <r_i_docking_score>  (1) 
-3.909625067728546

>  <r_i_glide_ecoul>  (1) 
-3.2066542904999751

>  <r_i_glide_eff_state_penalty>  (1) 
0.45605059937830777

>  <r_i_glide_einternal>  (1) 
39.230734950110246

>  <r_i_glide_emodel>  (1) 
-15.066153547926746

>  <r_i_glide_emodel_strain>  (1) 
2.4735079411125014

>  <r_i_glide_energy>  (1) 
-25.878519462867001

>  <r_i_glide_erotb>  (1) 
0.43548923687221863

>  <r_i_glide_esite>  (1) 
-0.047600665238308054

>  <r_i_glide_evdw>  (1) 
-22.671865172367024

>  <r_i_glide_gscore>  (1) 
-4.3656756671068537

>  <r_i_glide_gscore_strain>  (1) 
0

>  <r_i_glide_hbond>  (1) 
0

>  <r_i_glide_ligand_efficiency>  (1) 
-0.081450522244344709

>  <r_i_glide_ligand_efficiency_ln>  (1) 
-0.80259982270776242

>  <r_i_glide_ligand_efficiency_sa>  (1) 
-0.29601084253426213

>  <r_i_glide_lipo>  (1) 
-1.9649656416943251

>  <r_i_glide_metal>  (1) 
-0

>  <r_i_glide_rewards>  (1) 
-1.1740071948530919

>  <r_lp_Energy>  (1) 
28.938099999999999

>  <r_lp_tautomer_probability>  (1) 
0.99994996000200076

>  <s_epik_Chemistry_Notes>  (1) 
This compound contains an acetal/aminal-like group ( X-CH(R)-Y where X, Y are N, S, or O) that may be acid/base labile, releasing an aldehyde.

>  <s_epik_cmdline>  (1) 
J2VwaWtfcHl0aG9uJywgJy1waHQnLCAnMS4wJywgJy1waCcsICc3LjQnLCAnLXRuJywgJzgnLCAnLW1hJywgJzUwMCcsICctaW1hZScsICc8aW5maWxlLm1hZT4nLCAnLW9tYWUnLCAnPG91dGZpbGUubWFlPic=

>  <s_epik_input>  (1) 
W0NIM11DKFtDSF0xKT1bQ0hdW0NIXT1bQ0hdW0NAQEhdMltDSDJdW0NIMl1OKFtDQEhdM0M9MTIpW0NAXShbQ0gzXSkoW0NIMl1bQ0gyXTMpL1tDSF09QyhbT0hdKS9bQ0BIXShbQ0gyXVtDSDJdNClPW0NASF00T1tDQEhdKFtDSF01T081KVtDSDJdW0NIMl1bQ0BIXTZDKD1bQ0gyXSlTW0NASF0oW0NIMl1DKD1PKUMoPVtDSDJdKVtTSF0pW0NASF02T1tDSDJdW0NIMl1bQ0gyXVtDSDNd

>  <s_glide_docking_method>  (1) 
confgen

>  <s_i_glide_gridfile>  (1) 
gpcr_drd2_6luq_protein_autoprepared_prepared

>  <s_lp_Force_Field>  (1) 
S-OPLS

>  <s_lp_Variant>  (1) 
DiffSBDD_36_num_sample_100-2

>  <s_m_source_file>  (1) 
generated__ligand_DiffSBDD_2026-05-06_prepared.sdf

>  <GenAI_Model>  (1) 
DiffSBDD

>  <Protein>  (1) 
generic_title2

$$$$
DiffSBDD_70_num_sample_100
     RDKit          3D

  0  0  0  0  0  0  0  0  0  0999 V3000
M  V30 BEGIN CTAB
M  V30 COUNTS 76 78 0 0 1
M  V30 BEGIN ATOM
M  V30 1 C 7.076222 5.652350 -18.118994 0 CFG=1
M  V30 2 C 5.819792 4.847436 -20.081003 0
M  V30 3 C 6.509687 6.805834 -16.082863 0 CFG=1
M  V30 4 C 8.416368 7.566096 -11.971304 0
M  V30 5 C 5.370632 5.925805 -11.592532 0
M  V30 6 Cl 5.381581 4.169540 -11.918365 0
M  V30 7 C 9.532180 7.564160 -10.931604 0
M  V30 8 C 6.434571 3.651681 -19.365895 0
M  V30 9 C 11.331737 7.488132 -8.755392 0
M  V30 10 C 7.577085 4.271254 -18.563696 0
M  V30 11 C 10.182480 6.456485 -8.734095 0 CFG=1
M  V30 12 C 5.034000 7.087520 -15.947485 0
M  V30 13 C 7.348849 6.913797 -14.784101 0
M  V30 14 C 10.498100 9.203021 -6.217781 0
M  V30 15 C 8.191962 6.189909 -12.650655 0 CFG=1
M  V30 16 C 12.098471 7.613653 -7.418864 0 CFG=2
M  V30 17 O 6.977725 7.644138 -20.433976 0
M  V30 18 O 11.434535 10.210621 -5.894717 0
M  V30 19 C 11.139936 7.821042 -6.220106 0 CFG=2
M  V30 20 C 8.278792 5.001870 -11.647158 0
M  V30 21 C 5.863328 5.972577 -19.038666 0 CFG=2
M  V30 22 C 5.778151 6.628688 -12.898674 0
M  V30 23 C 9.263886 6.657720 -7.521238 0
M  V30 24 O 6.714167 5.560164 -16.739300 0
M  V30 25 C 10.084410 6.709106 -6.225074 0
M  V30 26 C 5.840042 7.401105 -19.639442 0
M  V30 27 C 9.434225 5.134175 -10.715668 0
M  V30 28 O 13.821449 8.569288 -8.712637 0
M  V30 29 O 4.651765 7.594138 -20.365410 0
M  V30 30 F 11.752907 7.684315 -5.042322 0
M  V30 31 N 9.373436 6.426851 -9.987996 0 CFG=2 CHG=1
M  V30 32 N 7.021924 6.160966 -13.553974 0
M  V30 33 O 13.025965 8.697012 -7.493927 0
M  V30 34 H 7.889181 6.369644 -18.245838 0
M  V30 35 H 6.429445 5.108279 -20.946465 0
M  V30 36 H 4.807967 4.645705 -20.430849 0
M  V30 37 H 6.846256 7.607898 -16.732988 0
M  V30 38 H 7.507374 7.913750 -11.491898 0
M  V30 39 H 8.646126 8.330608 -12.709493 0
M  V30 40 H 6.011380 6.172382 -10.752564 0
M  V30 41 H 4.399153 6.210147 -11.199004 0
M  V30 42 H 9.458434 8.517434 -10.409706 0
M  V30 43 H 10.507704 7.515768 -11.420612 0
M  V30 44 H 6.767280 2.874456 -20.051350 0
M  V30 45 H 5.701557 3.206866 -18.691239 0
M  V30 46 H 10.979722 8.489201 -8.991088 0
M  V30 47 H 12.005274 7.201412 -9.561645 0
M  V30 48 H 8.441640 4.403095 -19.215955 0
M  V30 49 H 7.894038 3.643906 -17.729198 0
M  V30 50 H 10.634847 5.476037 -8.590803 0
M  V30 51 H 4.836102 7.897982 -15.244903 0
M  V30 52 H 4.581196 7.374225 -16.894937 0
M  V30 53 H 4.553456 6.170548 -15.623325 0
M  V30 54 H 7.439978 7.972549 -14.542112 0
M  V30 55 H 8.327918 6.569323 -15.106999 0
M  V30 56 H 10.019541 9.369299 -7.174903 0
M  V30 57 H 9.710258 9.238698 -5.491785 0
M  V30 58 H 9.076247 6.031320 -13.268912 0
M  V30 59 H 12.634568 6.694704 -7.190967 0
M  V30 60 H 7.031427 8.574235 -20.597679 0
M  V30 61 H 12.235517 10.027034 -6.367312 0
M  V30 62 H 7.496225 4.882142 -10.923418 0
M  V30 63 H 8.337558 4.060680 -12.196907 0
M  V30 64 H 4.957767 5.846045 -18.445992 0
M  V30 65 H 5.791045 7.709624 -12.754755 0
M  V30 66 H 4.958290 6.434591 -13.570324 0
M  V30 67 H 8.668288 7.564510 -7.629305 0
M  V30 68 H 8.545551 5.838541 -7.464336 0
M  V30 69 H 9.434959 6.804546 -5.363389 0
M  V30 70 H 10.603523 5.767346 -6.090603 0
M  V30 71 H 5.833886 8.134566 -18.835303 0
M  V30 72 H 10.235076 5.083668 -11.415716 0
M  V30 73 H 9.479479 4.273726 -10.046362 0
M  V30 74 H 13.760621 9.444445 -9.091719 0
M  V30 75 H 4.612772 6.934118 -21.041063 0
M  V30 76 H 8.415097 6.523670 -9.662184 0
M  V30 END ATOM
M  V30 BEGIN BOND
M  V30 1 1 6 5
M  V30 2 1 7 4
M  V30 3 1 8 2
M  V30 4 1 10 1
M  V30 5 1 10 8
M  V30 6 1 11 9
M  V30 7 1 12 3
M  V30 8 1 13 3
M  V30 9 1 15 4
M  V30 10 1 16 9
M  V30 11 1 18 14
M  V30 12 1 19 14
M  V30 13 1 19 16
M  V30 14 1 20 15
M  V30 15 1 21 1
M  V30 16 1 21 2
M  V30 17 1 22 5
M  V30 18 1 23 11
M  V30 19 1 24 1
M  V30 20 1 24 3
M  V30 21 1 25 19
M  V30 22 1 25 23
M  V30 23 1 26 17
M  V30 24 1 26 21
M  V30 25 1 27 20
M  V30 26 1 29 26
M  V30 27 1 19 30 CFG=1
M  V30 28 1 31 7
M  V30 29 1 31 11
M  V30 30 1 31 27
M  V30 31 1 32 13
M  V30 32 1 32 15
M  V30 33 1 32 22
M  V30 34 1 33 16
M  V30 35 1 33 28
M  V30 36 1 1 34 CFG=1
M  V30 37 1 35 2
M  V30 38 1 36 2
M  V30 39 1 3 37 CFG=3
M  V30 40 1 38 4
M  V30 41 1 39 4
M  V30 42 1 40 5
M  V30 43 1 41 5
M  V30 44 1 42 7
M  V30 45 1 43 7
M  V30 46 1 44 8
M  V30 47 1 45 8
M  V30 48 1 46 9
M  V30 49 1 47 9
M  V30 50 1 48 10
M  V30 51 1 49 10
M  V30 52 1 11 50 CFG=1
M  V30 53 1 51 12
M  V30 54 1 52 12
M  V30 55 1 53 12
M  V30 56 1 54 13
M  V30 57 1 55 13
M  V30 58 1 56 14
M  V30 59 1 57 14
M  V30 60 1 15 58 CFG=3
M  V30 61 1 16 59 CFG=1
M  V30 62 1 60 17
M  V30 63 1 61 18
M  V30 64 1 62 20
M  V30 65 1 63 20
M  V30 66 1 21 64 CFG=1
M  V30 67 1 65 22
M  V30 68 1 66 22
M  V30 69 1 67 23
M  V30 70 1 68 23
M  V30 71 1 69 25
M  V30 72 1 70 25
M  V30 73 1 71 26
M  V30 74 1 72 27
M  V30 75 1 73 27
M  V30 76 1 74 28
M  V30 77 1 75 29
M  V30 78 1 31 76 CFG=1
M  V30 END BOND
M  V30 END CTAB
M  END
>  <i_epik_Tot_Q>  (1) 
1

>  <i_epik_Tot_abs_Q>  (1) 
1

>  <i_i_glide_confnum>  (1) 
2048

>  <i_i_glide_lignum>  (1) 
142

>  <i_i_glide_posenum>  (1) 
128

>  <i_i_glide_rotatable_bonds>  (1) 
15

>  <i_lp_mmshare_version>  (1) 
72125

>  <i_m_source_file_index>  (1) 
71

>  <i_f3d_flags>  (1) 
0

>  <num_sample>  (1) 
100

>  <b_lp_Chiralities_Consistent>  (1) 
1

>  <r_epik_Charging_Adjusted_Penalty>  (1) 
0.025762522161214964

>  <r_epik_Ionization_Penalty>  (1) 
0.015537266588199847

>  <r_epik_Ionization_Penalty_Charging>  (1) 
0.0050933563181465155

>  <r_epik_Ionization_Penalty_Neutral>  (1) 
0.010443910270053331

>  <r_epik_State_Penalty>  (1) 
0.020669165843068448

>  <r_glide_ring_energy>  (1) 
0

>  <r_i_docking_score>  (1) 
-3.9080302401206501

>  <r_i_glide_ecoul>  (1) 
-10.109723749592648

>  <r_i_glide_eff_state_penalty>  (1) 
0.020669165843068448

>  <r_i_glide_einternal>  (1) 
16.710219252836467

>  <r_i_glide_emodel>  (1) 
-22.384334644859123

>  <r_i_glide_emodel_strain>  (1) 
8.811796093080261

>  <r_i_glide_energy>  (1) 
-30.084482948883611

>  <r_i_glide_erotb>  (1) 
0.82250602570520104

>  <r_i_glide_esite>  (1) 
-0.11888331117380667

>  <r_i_glide_evdw>  (1) 
-19.974759199290965

>  <r_i_glide_gscore>  (1) 
-3.9286994059637186

>  <r_i_glide_gscore_strain>  (1) 
1.2029490232700653

>  <r_i_glide_hbond>  (1) 
-0.49410963165339333

>  <r_i_glide_ligand_efficiency>  (1) 
-0.11842515879153485

>  <r_i_glide_ligand_efficiency_ln>  (1) 
-0.86912569070518697

>  <r_i_glide_ligand_efficiency_sa>  (1) 
-0.37985276235905513

>  <r_i_glide_lipo>  (1) 
-1.9867799896941805

>  <r_i_glide_metal>  (1) 
-0

>  <r_i_glide_rewards>  (1) 
-0.83918500001415919

>  <r_lp_Energy>  (1) 
60.521072999999994

>  <s_epik_Chemistry_Notes>  (1) 
This compound contains an acetal/aminal-like group ( X-CH(R)-Y where X, Y are N, S, or O) that may be acid/base labile, releasing an aldehyde.

>  <s_epik_cmdline>  (1) 
J2VwaWtfcHl0aG9uJywgJy1waHQnLCAnMS4wJywgJy1waCcsICc3LjQnLCAnLXRuJywgJzgnLCAnLW1hJywgJzUwMCcsICctaW1hZScsICc8aW5maWxlLm1hZT4nLCAnLW9tYWUnLCAnPG91dGZpbGUubWFlPic=

>  <s_epik_input>  (1) 
W09IXVtDSF0oW09IXSlbQ0BIXTFbQ0gyXVtDSDJdW0NIMl1bQ0BASF0xT1tDQEBIXShbQ0gzXSlbQ0gyXU4oW0NIMl1bQ0gyXUNsKVtDSF0yW0NIMl1bQ0gyXU4oW0NIMl1bQ0gyXTIpW0NASF0oW0NIMl1bQ0gyXTMpW0NIMl1bQ0BASF0oT1tPSF0pW0NAQF0zKEYpW0NIMl1bT0hd

>  <s_glide_docking_method>  (1) 
confgen

>  <s_i_glide_gridfile>  (1) 
gpcr_drd2_6luq_protein_autoprepared_prepared

>  <s_lp_Force_Field>  (1) 
S-OPLS

>  <s_lp_Variant>  (1) 
DiffSBDD_70_num_sample_100-2

>  <s_m_source_file>  (1) 
generated__ligand_DiffSBDD_2026-05-06_prepared.sdf

>  <GenAI_Model>  (1) 
DiffSBDD

>  <Protein>  (1) 
generic_title2

$$$$
DiffSBDD_25_num_sample_100
     RDKit          3D

  0  0  0  0  0  0  0  0  0  0999 V3000
M  V30 BEGIN CTAB
M  V30 COUNTS 65 68 0 0 1
M  V30 BEGIN ATOM
M  V30 1 C 10.931787 7.426027 -6.295864 0
M  V30 2 C 5.204395 6.704240 -18.598560 0
M  V30 3 C 5.987135 6.962653 -16.194663 0
M  V30 4 C 8.160310 6.200426 -12.110269 0 CFG=2
M  V30 5 C 7.240198 2.826084 -19.574464 0
M  V30 6 O 7.725721 5.011500 -20.100210 0
M  V30 7 C 8.167541 4.889969 -18.759718 0 CFG=1
M  V30 8 C 6.750478 4.022300 -20.388409 0 CFG=2
M  V30 9 F 3.960303 6.569916 -18.134413 0
M  V30 10 C 5.337865 4.510953 -20.004152 0
M  V30 11 C 8.316476 5.153901 -8.477393 0
M  V30 12 C 7.668108 6.067102 -17.891173 0
M  V30 13 F 5.434839 8.005605 -18.772660 0
M  V30 14 C 6.020408 4.934882 -13.087080 0 CFG=1
M  V30 15 N 9.063560 5.769313 -7.491498 0
M  V30 16 C 6.165585 6.147040 -17.505450 0 CFG=2
M  V30 17 O 5.835041 6.709393 -11.491672 0
M  V30 18 C 9.435356 4.018684 -11.719290 0
M  V30 19 C 5.711495 5.168591 -14.560225 0
M  V30 20 F 6.785117 3.848277 -13.026720 0
M  V30 21 C 8.459734 5.028355 -11.102194 0 CFG=1
M  V30 22 C 6.405815 7.169032 -13.809963 0
M  V30 23 C 10.030572 6.373497 -8.183402 0
M  V30 24 C 8.830747 7.531789 -11.640098 0
M  V30 25 C 7.804132 3.463004 -18.313098 0
M  V30 26 O 9.994044 6.169282 -9.529692 0
M  V30 27 O 8.466713 8.708982 -12.291676 0
M  V30 28 C 5.204059 6.047760 -19.998353 0
M  V30 29 N 6.477648 6.316719 -14.973503 0
M  V30 30 C 8.863735 5.408993 -9.699984 0
M  V30 31 O 11.017838 7.143851 -7.686005 0
M  V30 32 C 6.649661 6.268579 -12.565339 0 CFG=1
M  V30 33 H 11.741231 8.097699 -6.011700 0
M  V30 34 H 9.989820 7.918051 -6.046400 0
M  V30 35 H 11.023747 6.516347 -5.699905 0
M  V30 36 H 4.934255 7.210127 -16.057207 0
M  V30 37 H 6.490116 7.923198 -16.317784 0
M  V30 38 H 8.680231 5.956732 -13.038605 0
M  V30 39 H 6.460642 2.090454 -19.374916 0
M  V30 40 H 8.042278 2.323708 -20.116795 0
M  V30 41 H 9.254942 4.964884 -18.805228 0
M  V30 42 H 6.777455 3.810010 -21.457640 0
M  V30 43 H 5.034780 4.101797 -19.043280 0
M  V30 44 H 4.628488 4.089272 -20.716751 0
M  V30 45 H 7.434845 4.586103 -8.231659 0
M  V30 46 H 7.968798 7.002212 -18.358959 0
M  V30 47 H 8.244137 5.996392 -16.969044 0
M  V30 48 H 5.105371 4.674404 -12.553499 0
M  V30 49 H 5.834747 5.144516 -17.281981 0
M  V30 50 H 6.362358 7.149383 -10.819529 0
M  V30 51 H 9.495698 3.132061 -11.091521 0
M  V30 52 H 9.121512 3.679712 -12.704818 0
M  V30 53 H 10.426522 4.450353 -11.852425 0
M  V30 54 H 4.646498 5.370567 -14.666073 0
M  V30 55 H 5.965842 4.291356 -15.147991 0
M  V30 56 H 7.532365 4.480984 -10.947672 0
M  V30 57 H 5.407267 7.605709 -13.746241 0
M  V30 58 H 7.093935 7.992193 -13.948244 0
M  V30 59 H 9.912963 7.435814 -11.734092 0
M  V30 60 H 8.634788 7.763793 -10.603942 0
M  V30 61 H 8.676313 2.919940 -17.947997 0
M  V30 62 H 7.066722 3.443217 -17.513778 0
M  V30 63 H 7.622537 8.971487 -11.954312 0
M  V30 64 H 4.268219 6.313045 -20.491205 0
M  V30 65 H 5.965581 6.508394 -20.628189 0
M  V30 END ATOM
M  V30 BEGIN BOND
M  V30 1 1 7 6
M  V30 2 1 8 5
M  V30 3 1 8 6
M  V30 4 1 9 2
M  V30 5 1 10 8
M  V30 6 1 12 7
M  V30 7 1 13 2
M  V30 8 1 15 11
M  V30 9 1 16 2
M  V30 10 1 16 3
M  V30 11 1 16 12
M  V30 12 1 19 14
M  V30 13 1 20 14
M  V30 14 1 21 4
M  V30 15 1 21 18
M  V30 16 2 23 15
M  V30 17 1 24 4
M  V30 18 1 25 5
M  V30 19 1 25 7
M  V30 20 1 26 23
M  V30 21 1 27 24
M  V30 22 1 28 2
M  V30 23 1 28 10
M  V30 24 1 29 3
M  V30 25 1 29 19
M  V30 26 1 29 22
M  V30 27 2 30 11
M  V30 28 1 30 21
M  V30 29 1 30 26
M  V30 30 1 31 1
M  V30 31 1 31 23
M  V30 32 1 32 4
M  V30 33 1 32 14
M  V30 34 1 32 17 CFG=1
M  V30 35 1 32 22
M  V30 36 1 33 1
M  V30 37 1 34 1
M  V30 38 1 35 1
M  V30 39 1 36 3
M  V30 40 1 37 3
M  V30 41 1 4 38 CFG=3
M  V30 42 1 39 5
M  V30 43 1 40 5
M  V30 44 1 7 41 CFG=3
M  V30 45 1 8 42 CFG=3
M  V30 46 1 43 10
M  V30 47 1 44 10
M  V30 48 1 45 11
M  V30 49 1 46 12
M  V30 50 1 47 12
M  V30 51 1 14 48 CFG=1
M  V30 52 1 16 49 CFG=1
M  V30 53 1 50 17
M  V30 54 1 51 18
M  V30 55 1 52 18
M  V30 56 1 53 18
M  V30 57 1 54 19
M  V30 58 1 55 19
M  V30 59 1 21 56 CFG=1
M  V30 60 1 57 22
M  V30 61 1 58 22
M  V30 62 1 59 24
M  V30 63 1 60 24
M  V30 64 1 61 25
M  V30 65 1 62 25
M  V30 66 1 63 27
M  V30 67 1 64 28
M  V30 68 1 65 28
M  V30 END BOND
M  V30 END CTAB
M  END
>  <i_epik_Tot_Q>  (1) 
0

>  <i_epik_Tot_abs_Q>  (1) 
0

>  <i_i_glide_confnum>  (1) 
129

>  <i_i_glide_lignum>  (1) 
40

>  <i_i_glide_posenum>  (1) 
306

>  <i_i_glide_rotatable_bonds>  (1) 
9

>  <i_lp_mmshare_version>  (1) 
72125

>  <i_m_source_file_index>  (1) 
26

>  <i_f3d_flags>  (1) 
0

>  <num_sample>  (1) 
100

>  <b_lp_Chiralities_Consistent>  (1) 
1

>  <r_epik_Charging_Adjusted_Penalty>  (1) 
1.0631091651627218

>  <r_epik_Ionization_Penalty>  (1) 
1.0631126298453322

>  <r_epik_Ionization_Penalty_Charging>  (1) 
0

>  <r_epik_Ionization_Penalty_Neutral>  (1) 
1.0631126298453322

>  <r_epik_State_Penalty>  (1) 
1.0631091651627218

>  <r_glide_ring_energy>  (1) 
1.3601753823805443

>  <r_i_docking_score>  (1) 
-3.9045100352480251

>  <r_i_glide_ecoul>  (1) 
-5.0304697770931206

>  <r_i_glide_eff_state_penalty>  (1) 
1.0631091651627218

>  <r_i_glide_einternal>  (1) 
9.6519911178421971

>  <r_i_glide_emodel>  (1) 
-36.225589658727401

>  <r_i_glide_emodel_strain>  (1) 
3.538115328655465

>  <r_i_glide_energy>  (1) 
-32.996750116937278

>  <r_i_glide_erotb>  (1) 
0.56501407927423541

>  <r_i_glide_esite>  (1) 
0

>  <r_i_glide_evdw>  (1) 
-27.966280339844158

>  <r_i_glide_gscore>  (1) 
-4.9676192004107467

>  <r_i_glide_gscore_strain>  (1) 
0

>  <r_i_glide_hbond>  (1) 
-0.16

>  <r_i_glide_ligand_efficiency>  (1) 
-0.12201593860150078

>  <r_i_glide_ligand_efficiency_ln>  (1) 
-0.87432622981581831

>  <r_i_glide_ligand_efficiency_sa>  (1) 
-0.38737645858581921

>  <r_i_glide_lipo>  (1) 
-1.9843022149906673

>  <r_i_glide_metal>  (1) 
-0

>  <r_i_glide_rewards>  (1) 
-1.235446581138139

>  <r_lp_Energy>  (1) 
23.195093

>  <s_epik_cmdline>  (1) 
J2VwaWtfcHl0aG9uJywgJy1waHQnLCAnMS4wJywgJy1waCcsICc3LjQnLCAnLXRuJywgJzgnLCAnLW1hJywgJzUwMCcsICctaW1hZScsICc8aW5maWxlLm1hZT4nLCAnLW9tYWUnLCAnPG91dGZpbGUubWFlPic=

>  <s_epik_input>  (1) 
W0NIM11PYzFuW2NIXWMobzEpW0NASF0oW0NIM10pW0NASF0oW0NIMl1bT0hdKVtDQF0yKFtPSF0pW0NASF0oRilbQ0gyXU4oW0NIMl0yKVtDSDJdW0NASF0oW0NIMl0zKUMoRikoRilbQ0gyXVtDSDJdW0NASF0oW0NIMl1bQ0gyXTQpT1tDQEBIXTM0

>  <s_glide_docking_method>  (1) 
confgen

>  <s_i_glide_gridfile>  (1) 
gpcr_drd2_6luq_protein_autoprepared_prepared

>  <s_lp_Force_Field>  (1) 
S-OPLS

>  <s_lp_Variant>  (1) 
DiffSBDD_25_num_sample_100-3

>  <s_m_source_file>  (1) 
generated__ligand_DiffSBDD_2026-05-06_prepared.sdf

>  <GenAI_Model>  (1) 
DiffSBDD

>  <Protein>  (1) 
generic_title2

$$$$
DiffSBDD_66_num_sample_100
     RDKit          3D

  0  0  0  0  0  0  0  0  0  0999 V3000
M  V30 BEGIN CTAB
M  V30 COUNTS 88 91 0 0 1
M  V30 BEGIN ATOM
M  V30 1 C 9.792922 3.864219 -18.438963 0
M  V30 2 F 7.434944 7.379814 -13.342545 0
M  V30 3 C 7.897279 4.672285 -16.937985 0 CFG=1
M  V30 4 N 6.979579 2.894420 -19.219121 0
M  V30 5 C 7.387979 0.744755 -20.212029 0
M  V30 6 F 5.855630 5.767433 -17.536470 0
M  V30 7 O 9.656474 5.704912 -9.541314 0
M  V30 8 N 5.368869 -0.496906 -19.764439 0
M  V30 9 O 7.379257 6.099290 -11.491218 0
M  V30 10 C 6.483242 4.195582 -19.203484 0
M  V30 11 O 7.295008 -1.605676 -19.929491 0
M  V30 12 C 7.256478 4.596041 -15.515869 0
M  V30 13 C 6.239098 -2.548537 -19.567513 0
M  V30 14 C 7.988390 3.770009 -14.456165 0
M  V30 15 O 9.598418 -0.145684 -19.627659 0
M  V30 16 C 6.657178 2.024858 -20.269571 0
M  V30 17 O 5.736585 4.645564 -20.078476 0
M  V30 18 C 8.898331 0.745274 -20.478127 0
M  V30 19 C 7.375984 2.413192 -14.127088 0
M  V30 20 C 9.834722 6.916734 -9.443352 0
M  V30 21 C 4.857197 -1.798133 -19.551870 0
M  V30 22 O 6.032943 0.037742 -15.597527 0
M  V30 23 C 10.250577 6.116967 -12.699050 0
M  V30 24 C 10.932369 6.823920 -6.171652 0
M  V30 25 C 7.914474 7.253678 -12.082076 0 CFG=1
M  V30 26 O 5.849496 2.308410 -21.156950 0
M  V30 27 C 8.696076 3.461623 -17.431005 0 CFG=1
M  V30 28 N 9.843099 7.563164 -8.263567 0
M  V30 29 C 10.909322 5.369529 -15.164176 0 CFG=2
M  V30 30 C 6.747913 1.722479 -17.086808 0
M  V30 31 C 8.009146 1.204553 -14.873412 0 CFG=1
M  V30 32 O 12.104956 6.169328 -14.975785 0
M  V30 33 C 8.316477 0.086788 -13.877573 0
M  V30 34 C 9.102430 4.204646 -13.832894 0
M  V30 35 C 9.467369 7.310547 -12.062484 0 CFG=1
M  V30 36 C 7.772734 2.393273 -18.043166 0 CFG=1
M  V30 37 C 6.922106 5.138375 -18.042653 0 CFG=2
M  V30 38 C 6.687838 -0.391680 -19.981141 0
M  V30 39 C 9.630864 6.886985 -6.984180 0
M  V30 40 C 11.501929 6.308810 -16.228558 0
M  V30 41 C 9.788390 5.542578 -14.090548 0 CFG=1
M  V30 42 C 7.208425 0.664451 -16.075770 0 CFG=1
M  V30 43 C 10.057498 7.778656 -10.696238 0
M  V30 44 H 9.384423 4.283820 -19.358819 0
M  V30 45 H 10.461622 4.608994 -18.016680 0
M  V30 46 H 10.408420 3.005660 -18.712264 0
M  V30 47 H 8.626539 5.474018 -16.831722 0
M  V30 48 H 4.741497 0.292178 -19.841313 0
M  V30 49 H 7.120421 6.359832 -10.609503 0
M  V30 50 H 7.113468 5.609654 -15.147670 0
M  V30 51 H 6.234854 4.256762 -15.532633 0
M  V30 52 H 6.222936 -3.387803 -20.262522 0
M  V30 53 H 6.461988 -2.949687 -18.578020 0
M  V30 54 H 9.094331 -0.948702 -19.585410 0
M  V30 55 H 9.325515 1.745677 -20.410403 0
M  V30 56 H 9.050405 0.421000 -21.508432 0
M  V30 57 H 7.537405 2.283431 -13.056554 0
M  V30 58 H 6.290231 2.426220 -14.221144 0
M  V30 59 H 4.234822 -2.104596 -20.388156 0
M  V30 60 H 4.319597 -1.887134 -18.607737 0
M  V30 61 H 6.281752 -0.650532 -14.997475 0
M  V30 62 H 10.279827 5.306919 -11.972892 0
M  V30 63 H 11.287976 6.436107 -12.760235 0
M  V30 64 H 10.766463 6.329267 -5.213550 0
M  V30 65 H 11.706630 6.268461 -6.701842 0
M  V30 66 H 11.316045 7.824253 -5.965918 0
M  V30 67 H 7.528429 8.104131 -11.522178 0
M  V30 68 H 9.251500 3.039065 -16.602779 0
M  V30 69 H 9.983380 8.561470 -8.251393 0
M  V30 70 H 11.051250 4.342567 -15.491776 0
M  V30 71 H 5.966453 1.251153 -17.684624 0
M  V30 72 H 6.234839 2.479310 -16.539046 0
M  V30 73 H 8.979840 1.462488 -15.275955 0
M  V30 74 H 7.422803 -0.230549 -13.336790 0
M  V30 75 H 8.727134 -0.778161 -14.394677 0
M  V30 76 H 9.050075 0.405282 -13.135321 0
M  V30 77 H 9.566859 3.570501 -13.090597 0
M  V30 78 H 9.694723 8.165958 -12.691568 0
M  V30 79 H 8.481434 1.606891 -18.249164 0
M  V30 80 H 7.436596 5.942713 -18.568736 0
M  V30 81 H 8.879565 7.450683 -6.430492 0
M  V30 82 H 9.219734 5.883193 -7.104002 0
M  V30 83 H 12.075612 5.843153 -17.026335 0
M  V30 84 H 11.434841 7.369344 -16.331160 0
M  V30 85 H 9.034828 6.169282 -14.531935 0
M  V30 86 H 7.792998 -0.095940 -16.597873 0
M  V30 87 H 11.130725 7.932452 -10.800916 0
M  V30 88 H 9.631754 8.755149 -10.467855 0
M  V30 END ATOM
M  V30 BEGIN BOND
M  V30 1 1 10 4
M  V30 2 1 12 3
M  V30 3 1 13 11
M  V30 4 1 14 12
M  V30 5 1 16 4
M  V30 6 1 16 5
M  V30 7 2 17 10
M  V30 8 1 18 5
M  V30 9 1 18 15
M  V30 10 1 19 14
M  V30 11 2 20 7
M  V30 12 1 21 8
M  V30 13 1 21 13
M  V30 14 1 25 2
M  V30 15 1 25 9
M  V30 16 2 26 16
M  V30 17 1 27 1
M  V30 18 1 27 3
M  V30 19 1 28 20
M  V30 20 1 31 19
M  V30 21 1 32 29
M  V30 22 1 33 31
M  V30 23 2 34 14
M  V30 24 1 35 23
M  V30 25 1 35 25
M  V30 26 1 36 4
M  V30 27 1 36 27
M  V30 28 1 36 30
M  V30 29 1 37 3
M  V30 30 1 37 6
M  V30 31 1 37 10
M  V30 32 2 38 5
M  V30 33 1 38 8
M  V30 34 1 38 11
M  V30 35 1 39 24
M  V30 36 1 39 28
M  V30 37 1 40 29
M  V30 38 1 40 32
M  V30 39 1 41 23
M  V30 40 1 41 29
M  V30 41 1 41 34
M  V30 42 1 42 22
M  V30 43 1 42 30
M  V30 44 1 42 31
M  V30 45 1 43 20
M  V30 46 1 43 35
M  V30 47 1 44 1
M  V30 48 1 45 1
M  V30 49 1 46 1
M  V30 50 1 3 47 CFG=1
M  V30 51 1 48 8
M  V30 52 1 49 9
M  V30 53 1 50 12
M  V30 54 1 51 12
M  V30 55 1 52 13
M  V30 56 1 53 13
M  V30 57 1 54 15
M  V30 58 1 55 18
M  V30 59 1 56 18
M  V30 60 1 57 19
M  V30 61 1 58 19
M  V30 62 1 59 21
M  V30 63 1 60 21
M  V30 64 1 61 22
M  V30 65 1 62 23
M  V30 66 1 63 23
M  V30 67 1 64 24
M  V30 68 1 65 24
M  V30 69 1 66 24
M  V30 70 1 25 67 CFG=1
M  V30 71 1 27 68 CFG=1
M  V30 72 1 69 28
M  V30 73 1 29 70 CFG=3
M  V30 74 1 71 30
M  V30 75 1 72 30
M  V30 76 1 31 73 CFG=3
M  V30 77 1 74 33
M  V30 78 1 75 33
M  V30 79 1 76 33
M  V30 80 1 77 34
M  V30 81 1 35 78 CFG=3
M  V30 82 1 36 79 CFG=3
M  V30 83 1 37 80 CFG=3
M  V30 84 1 81 39
M  V30 85 1 82 39
M  V30 86 1 83 40
M  V30 87 1 84 40
M  V30 88 1 41 85 CFG=3
M  V30 89 1 42 86 CFG=3
M  V30 90 1 87 43
M  V30 91 1 88 43
M  V30 END BOND
M  V30 END CTAB
M  END
>  <i_epik_Tot_Q>  (1) 
0

>  <i_epik_Tot_abs_Q>  (1) 
0

>  <i_i_glide_confnum>  (1) 
887

>  <i_i_glide_lignum>  (1) 
132

>  <i_i_glide_posenum>  (1) 
323

>  <i_i_glide_rotatable_bonds>  (1) 
15

>  <i_lp_mmshare_version>  (1) 
72125

>  <i_m_source_file_index>  (1) 
67

>  <i_f3d_flags>  (1) 
0

>  <num_sample>  (1) 
100

>  <b_lp_Chiralities_Consistent>  (1) 
1

>  <r_epik_Charging_Adjusted_Penalty>  (1) 
0.011224841026204068

>  <r_epik_Ionization_Penalty>  (1) 
0.011270599783865109

>  <r_epik_Ionization_Penalty_Charging>  (1) 
8.5422756824624084e-11

>  <r_epik_Ionization_Penalty_Neutral>  (1) 
0.011270599698442352

>  <r_epik_State_Penalty>  (1) 
0.01122484094078131

>  <r_glide_ring_energy>  (1) 
0

>  <r_i_docking_score>  (1) 
-3.9010358636475484

>  <r_i_glide_ecoul>  (1) 
-4.2267573036102304

>  <r_i_glide_eff_state_penalty>  (1) 
0.01122484094078131

>  <r_i_glide_einternal>  (1) 
18.126526446719932

>  <r_i_glide_emodel>  (1) 
-20.844460620988244

>  <r_i_glide_emodel_strain>  (1) 
3.8462099054989096

>  <r_i_glide_energy>  (1) 
-27.180462802344103

>  <r_i_glide_erotb>  (1) 
0.43215163049877869

>  <r_i_glide_esite>  (1) 
-0.18303160945012631

>  <r_i_glide_evdw>  (1) 
-22.953705498733871

>  <r_i_glide_gscore>  (1) 
-3.9122607045883298

>  <r_i_glide_gscore_strain>  (1) 
0

>  <r_i_glide_hbond>  (1) 
-0.14364661261241454

>  <r_i_glide_ligand_efficiency>  (1) 
-0.090721764270873223

>  <r_i_glide_ligand_efficiency_ln>  (1) 
-0.81933877359811125

>  <r_i_glide_ligand_efficiency_sa>  (1) 
-0.31783445298143892

>  <r_i_glide_lipo>  (1) 
-1.6742703178253304

>  <r_i_glide_metal>  (1) 
-0

>  <r_i_glide_rewards>  (1) 
-0.56176492472100914

>  <r_lp_Energy>  (1) 
44.110861999999997

>  <r_lp_tautomer_probability>  (1) 
0.49997499999946832

>  <s_epik_Chemistry_Notes>  (1) 
This compound has an imine and may undergo hydrolysis.

>  <s_epik_cmdline>  (1) 
J2VwaWtfcHl0aG9uJywgJy1waHQnLCAnMS4wJywgJy1waCcsICc3LjQnLCAnLXRuJywgJzgnLCAnLW1hJywgJzUwMCcsICctaW1hZScsICc8aW5maWxlLm1hZT4nLCAnLW9tYWUnLCAnPG91dGZpbGUubWFlPic=

>  <s_epik_input>  (1) 
TzFbQ0gyXVtDSDJdTj1DMVtDQEhdKFtDSDJdW09IXSlDKD1PKU4oQyg9TylbQ0BIXTJGKVtDQEBIXShbQ0BASF0zW0NIM10pW0NIMl1bQ0BIXShbT0hdKVtDQEhdKFtDSDNdKVtDSDJdQyhcW0NIMl1bQ0BIXTIzKT1bQ0hdXFtDQEhdKFtDQEBIXTRPW0NIMl00KVtDSDJdW0NAQEhdKFtDQEBIXShGKVtPSF0pW0NIMl1DKD1PKVtOSF1bQ0gyXVtDSDNd

>  <s_glide_docking_method>  (1) 
confgen

>  <s_i_glide_gridfile>  (1) 
gpcr_drd2_6luq_protein_autoprepared_prepared

>  <s_lp_Force_Field>  (1) 
S-OPLS

>  <s_lp_Variant>  (1) 
DiffSBDD_66_num_sample_100-4

>  <s_m_source_file>  (1) 
generated__ligand_DiffSBDD_2026-05-06_prepared.sdf

>  <GenAI_Model>  (1) 
DiffSBDD

>  <Protein>  (1) 
generic_title2

$$$$
DiffSBDD_66_num_sample_100
     RDKit          3D

  0  0  0  0  0  0  0  0  0  0999 V3000
M  V30 BEGIN CTAB
M  V30 COUNTS 88 91 0 0 1
M  V30 BEGIN ATOM
M  V30 1 C 10.095386 1.390251 -18.200150 0
M  V30 2 F 5.034841 5.567889 -13.891691 0
M  V30 3 C 8.288161 2.911521 -19.273337 0 CFG=1
M  V30 4 N 7.817845 0.876532 -21.417406 0
M  V30 5 C 8.292381 -1.393760 -22.116195 0
M  V30 6 F 7.023681 4.291040 -20.730582 0
M  V30 7 O 9.034902 4.064370 -11.318050 0
M  V30 8 N 6.335858 -2.712808 -22.641888 0
M  V30 9 O 5.842023 5.292240 -11.799067 0
M  V30 10 C 7.529948 2.205733 -21.739099 0
M  V30 11 O 8.238920 -3.763879 -22.145908 0
M  V30 12 C 6.958646 2.800361 -18.462397 0
M  V30 13 C 7.204995 -4.761744 -22.426440 0
M  V30 14 C 6.942260 2.173510 -17.074915 0
M  V30 15 O 10.563712 -1.540467 -22.939477 0
M  V30 16 C 7.562640 -0.131388 -22.358022 0
M  V30 17 O 7.022604 2.549537 -22.810236 0
M  V30 18 C 9.788610 -1.348986 -21.772498 0
M  V30 19 C 6.000704 0.967996 -16.907702 0
M  V30 20 C 8.966570 5.127393 -11.925601 0
M  V30 21 C 5.854316 -4.035599 -22.782483 0
M  V30 22 O 7.998264 -2.252631 -17.491665 0
M  V30 23 C 6.831730 3.224761 -13.671233 0
M  V30 24 C 9.835418 7.898302 -9.585981 0
M  V30 25 C 6.146348 5.652517 -13.131699 0 CFG=1
M  V30 26 O 6.826111 0.042700 -23.334295 0
M  V30 27 C 9.187368 1.670579 -19.413283 0 CFG=2
M  V30 28 N 9.156022 6.318617 -11.338418 0
M  V30 29 C 7.499880 0.783649 -14.286987 0 CFG=1
M  V30 30 C 8.253098 -0.815640 -19.266685 0
M  V30 31 C 6.365946 -0.485858 -17.377246 0 CFG=1
M  V30 32 O 7.652614 0.467612 -12.897107 0
M  V30 33 C 5.315933 -1.030065 -18.369513 0
M  V30 34 C 7.641704 2.727279 -16.052314 0
M  V30 35 C 7.197316 4.738545 -13.796004 0 CFG=1
M  V30 36 C 8.284137 0.564692 -19.998139 0 CFG=2
M  V30 37 C 7.931049 3.310069 -20.715498 0 CFG=2
M  V30 38 C 7.627975 -2.562713 -22.303347 0
M  V30 39 C 9.437719 6.455294 -9.914747 0
M  V30 40 C 6.394994 0.140096 -13.489880 0
M  V30 41 C 7.634435 2.266493 -14.587496 0 CFG=1
M  V30 42 C 7.827731 -0.873723 -17.770339 0 CFG=1
M  V30 43 C 8.649559 5.143812 -13.421980 0
M  V30 44 H 9.578664 1.412218 -17.247837 0
M  V30 45 H 10.614632 0.436306 -18.294586 0
M  V30 46 H 10.865066 2.159065 -18.129332 0
M  V30 47 H 8.883068 3.712608 -18.831636 0
M  V30 48 H 5.732249 -1.922953 -22.841036 0
M  V30 49 H 6.213826 5.938776 -11.212905 0
M  V30 50 H 6.608677 3.821056 -18.301056 0
M  V30 51 H 6.152002 2.376114 -19.061318 0
M  V30 52 H 7.530037 -5.395397 -23.252112 0
M  V30 53 H 7.078456 -5.401709 -21.552953 0
M  V30 54 H 10.375444 -0.845862 -23.552647 0
M  V30 55 H 10.034871 -2.166302 -21.095071 0
M  V30 56 H 10.134303 -0.420334 -21.325490 0
M  V30 57 H 5.115471 1.248020 -17.467945 0
M  V30 58 H 5.602556 0.938851 -15.898445 0
M  V30 59 H 5.520089 -4.231013 -23.801070 0
M  V30 60 H 5.057102 -4.249364 -22.069900 0
M  V30 61 H 7.834896 -2.423873 -16.565394 0
M  V30 62 H 5.774336 3.098070 -13.891623 0
M  V30 63 H 6.948191 2.921942 -12.630439 0
M  V30 64 H 10.018847 8.012183 -8.517798 0
M  V30 65 H 10.742390 8.192499 -10.115162 0
M  V30 66 H 9.041722 8.595096 -9.858931 0
M  V30 67 H 6.482398 6.689055 -13.139927 0
M  V30 68 H 9.925857 1.879186 -20.190519 0
M  V30 69 H 9.084959 7.160327 -11.889402 0
M  V30 70 H 8.097455 0.135048 -14.922075 0
M  V30 71 H 9.249593 -1.248635 -19.301395 0
M  V30 72 H 7.581543 -1.505133 -19.771777 0
M  V30 73 H 6.181447 -1.060016 -16.466841 0
M  V30 74 H 5.339606 -0.497092 -19.320181 0
M  V30 75 H 5.476974 -2.088719 -18.576099 0
M  V30 76 H 4.306664 -0.934869 -17.966497 0
M  V30 77 H 8.248081 3.597335 -16.259254 0
M  V30 78 H 7.116748 4.991307 -14.852821 0
M  V30 79 H 7.294308 0.744627 -19.612282 0
M  V30 80 H 8.816867 3.775145 -21.149673 0
M  V30 81 H 8.552921 6.169186 -9.344154 0
M  V30 82 H 10.234830 5.776710 -9.612140 0
M  V30 83 H 6.234863 -0.923399 -13.627536 0
M  V30 84 H 5.552723 0.734030 -13.141673 0
M  V30 85 H 8.634839 2.447898 -14.256481 0
M  V30 86 H 8.528033 -0.372410 -17.115228 0
M  V30 87 H 9.378652 4.519762 -13.936375 0
M  V30 88 H 8.826992 6.151245 -13.797558 0
M  V30 END ATOM
M  V30 BEGIN BOND
M  V30 1 1 10 4
M  V30 2 1 12 3
M  V30 3 1 13 11
M  V30 4 1 14 12
M  V30 5 1 16 4
M  V30 6 1 16 5
M  V30 7 2 17 10
M  V30 8 1 18 5
M  V30 9 1 18 15
M  V30 10 1 19 14
M  V30 11 2 20 7
M  V30 12 1 21 8
M  V30 13 1 21 13
M  V30 14 1 25 2
M  V30 15 1 25 9
M  V30 16 2 26 16
M  V30 17 1 27 1
M  V30 18 1 27 3
M  V30 19 1 28 20
M  V30 20 1 31 19
M  V30 21 1 32 29
M  V30 22 1 33 31
M  V30 23 2 34 14
M  V30 24 1 35 23
M  V30 25 1 35 25
M  V30 26 1 36 4
M  V30 27 1 36 27
M  V30 28 1 36 30
M  V30 29 1 37 3
M  V30 30 1 37 6
M  V30 31 1 37 10
M  V30 32 2 38 5
M  V30 33 1 38 8
M  V30 34 1 38 11
M  V30 35 1 39 24
M  V30 36 1 39 28
M  V30 37 1 40 29
M  V30 38 1 40 32
M  V30 39 1 41 23
M  V30 40 1 41 29
M  V30 41 1 41 34
M  V30 42 1 42 22
M  V30 43 1 42 30
M  V30 44 1 42 31
M  V30 45 1 43 20
M  V30 46 1 43 35
M  V30 47 1 44 1
M  V30 48 1 45 1
M  V30 49 1 46 1
M  V30 50 1 3 47 CFG=1
M  V30 51 1 48 8
M  V30 52 1 49 9
M  V30 53 1 50 12
M  V30 54 1 51 12
M  V30 55 1 52 13
M  V30 56 1 53 13
M  V30 57 1 54 15
M  V30 58 1 55 18
M  V30 59 1 56 18
M  V30 60 1 57 19
M  V30 61 1 58 19
M  V30 62 1 59 21
M  V30 63 1 60 21
M  V30 64 1 61 22
M  V30 65 1 62 23
M  V30 66 1 63 23
M  V30 67 1 64 24
M  V30 68 1 65 24
M  V30 69 1 66 24
M  V30 70 1 25 67 CFG=1
M  V30 71 1 27 68 CFG=3
M  V30 72 1 69 28
M  V30 73 1 29 70 CFG=3
M  V30 74 1 71 30
M  V30 75 1 72 30
M  V30 76 1 31 73 CFG=1
M  V30 77 1 74 33
M  V30 78 1 75 33
M  V30 79 1 76 33
M  V30 80 1 77 34
M  V30 81 1 35 78 CFG=3
M  V30 82 1 36 79 CFG=1
M  V30 83 1 37 80 CFG=3
M  V30 84 1 81 39
M  V30 85 1 82 39
M  V30 86 1 83 40
M  V30 87 1 84 40
M  V30 88 1 41 85 CFG=1
M  V30 89 1 42 86 CFG=1
M  V30 90 1 87 43
M  V30 91 1 88 43
M  V30 END BOND
M  V30 END CTAB
M  END
>  <i_epik_Tot_Q>  (1) 
0

>  <i_epik_Tot_abs_Q>  (1) 
0

>  <i_i_glide_confnum>  (1) 
1797

>  <i_i_glide_lignum>  (1) 
129

>  <i_i_glide_posenum>  (1) 
162

>  <i_i_glide_rotatable_bonds>  (1) 
15

>  <i_lp_mmshare_version>  (1) 
72125

>  <i_m_source_file_index>  (1) 
67

>  <i_f3d_flags>  (1) 
0

>  <num_sample>  (1) 
100

>  <b_lp_Chiralities_Consistent>  (1) 
1

>  <r_epik_Charging_Adjusted_Penalty>  (1) 
0.011224841026204068

>  <r_epik_Ionization_Penalty>  (1) 
0.011270599783865109

>  <r_epik_Ionization_Penalty_Charging>  (1) 
8.5422756824624084e-11

>  <r_epik_Ionization_Penalty_Neutral>  (1) 
0.011270599698442352

>  <r_epik_State_Penalty>  (1) 
0.01122484094078131

>  <r_glide_ring_energy>  (1) 
0

>  <r_i_docking_score>  (1) 
-3.8941355002527338

>  <r_i_glide_ecoul>  (1) 
-5.9771548102187246

>  <r_i_glide_eff_state_penalty>  (1) 
0.01122484094078131

>  <r_i_glide_einternal>  (1) 
10.659267722381768

>  <r_i_glide_emodel>  (1) 
-32.833379954995891

>  <r_i_glide_emodel_strain>  (1) 
2.4245110978325783

>  <r_i_glide_energy>  (1) 
-35.513698482596837

>  <r_i_glide_erotb>  (1) 
0.43215163049877869

>  <r_i_glide_esite>  (1) 
-0.048751958581770762

>  <r_i_glide_evdw>  (1) 
-29.536543672378116

>  <r_i_glide_gscore>  (1) 
-3.9053603411935152

>  <r_i_glide_gscore_strain>  (1) 
0

>  <r_i_glide_hbond>  (1) 
-0.32000000000000001

>  <r_i_glide_ligand_efficiency>  (1) 
-0.090561290703551955

>  <r_i_glide_ligand_efficiency_ln>  (1) 
-0.81788948282537732

>  <r_i_glide_ligand_efficiency_sa>  (1) 
-0.31727225019694222

>  <r_i_glide_lipo>  (1) 
-1.2886654865840461

>  <r_i_glide_metal>  (1) 
-0

>  <r_i_glide_rewards>  (1) 
-0.30669412137476171

>  <r_lp_Energy>  (1) 
54.897804999999998

>  <r_lp_tautomer_probability>  (1) 
0.49997499999946832

>  <s_epik_Chemistry_Notes>  (1) 
This compound has an imine and may undergo hydrolysis.

>  <s_epik_cmdline>  (1) 
J2VwaWtfcHl0aG9uJywgJy1waHQnLCAnMS4wJywgJy1waCcsICc3LjQnLCAnLXRuJywgJzgnLCAnLW1hJywgJzUwMCcsICctaW1hZScsICc8aW5maWxlLm1hZT4nLCAnLW9tYWUnLCAnPG91dGZpbGUubWFlPic=

>  <s_epik_input>  (1) 
TzFbQ0gyXVtDSDJdTj1DMVtDQEhdKFtDSDJdW09IXSlDKD1PKU4oQyg9TylbQ0BIXTJGKVtDQEBIXShbQ0BASF0zW0NIM10pW0NIMl1bQ0BIXShbT0hdKVtDQEhdKFtDSDNdKVtDSDJdQyhcW0NIMl1bQ0BIXTIzKT1bQ0hdL1tDQEhdKFtDQEBIXTRPW0NIMl00KVtDSDJdW0NAQEhdKFtDQEBIXShGKVtPSF0pW0NIMl1DKD1PKVtOSF1bQ0gyXVtDSDNd

>  <s_glide_docking_method>  (1) 
confgen

>  <s_i_glide_gridfile>  (1) 
gpcr_drd2_6luq_protein_autoprepared_prepared

>  <s_lp_Force_Field>  (1) 
S-OPLS

>  <s_lp_Variant>  (1) 
DiffSBDD_66_num_sample_100-1

>  <s_m_source_file>  (1) 
generated__ligand_DiffSBDD_2026-05-06_prepared.sdf

>  <GenAI_Model>  (1) 
DiffSBDD

>  <Protein>  (1) 
generic_title2

$$$$
DiffSBDD_45_num_sample_100
     RDKit          3D

  0  0  0  0  0  0  0  0  0  0999 V3000
M  V30 BEGIN CTAB
M  V30 COUNTS 63 65 0 0 1
M  V30 BEGIN ATOM
M  V30 1 C 4.446577 7.256434 -17.996712 0
M  V30 2 C 9.208541 6.312818 -10.161003 0
M  V30 3 C 4.850211 6.422770 -19.219890 0
M  V30 4 C 11.898460 7.499990 -7.607772 0 CFG=2
M  V30 5 C 11.074559 7.289551 -8.906655 0 CFG=1
M  V30 6 C 10.224635 7.616421 -5.760897 0
M  V30 7 C 7.915784 5.178878 -14.879272 0
M  V30 8 C 6.088790 6.021146 -16.467612 0 CFG=2
M  V30 9 O 8.634752 5.913838 -15.521570 0
M  V30 10 N 9.939978 6.335522 -8.882158 0
M  V30 11 Cl 10.479000 8.866607 -9.467684 0
M  V30 12 C 6.574152 4.223594 -12.219637 0 CFG=1
M  V30 13 C 7.146421 2.206160 -13.818276 0
M  V30 14 C 6.122490 5.632833 -18.977195 0
M  V30 15 C 7.184868 5.449313 -11.475976 0
M  V30 16 N 11.207812 8.302285 -6.595314 0
M  V30 17 C 5.358922 4.632344 -13.068424 0
M  V30 18 C 8.252510 5.119062 -10.404497 0
M  V30 19 C 6.673434 5.452062 -17.761115 0
M  V30 20 C 9.019510 6.621996 -7.791563 0
M  V30 21 C 7.612242 3.479136 -13.071355 0 CFG=1
M  V30 22 C 6.407600 5.115154 -15.210022 0 CFG=2
M  V30 23 F 12.999641 8.172852 -7.937437 0
M  V30 24 O 5.635382 5.581041 -14.099590 0
M  V30 25 C 4.621769 6.464362 -16.693309 0
M  V30 26 C 9.593300 6.382214 -6.401942 0
M  V30 27 N 8.409557 4.416940 -13.874639 0
M  V30 28 C 9.816833 4.564308 -13.511407 0
M  V30 29 H 3.412169 7.590824 -18.092730 0
M  V30 30 H 5.060099 8.159895 -17.937188 0
M  V30 31 H 9.914187 6.357544 -10.985158 0
M  V30 32 H 8.634514 7.228668 -10.270280 0
M  V30 33 H 4.970470 7.070437 -20.090298 0
M  V30 34 H 4.063600 5.712108 -19.471716 0
M  V30 35 H 12.240070 6.560644 -7.179115 0
M  V30 36 H 11.770726 6.971618 -9.676097 0
M  V30 37 H 9.437647 8.322512 -5.506246 0
M  V30 38 H 10.682809 7.316829 -4.817639 0
M  V30 39 H 6.607785 6.970819 -16.323388 0
M  V30 40 H 6.208928 3.528296 -11.461790 0
M  V30 41 H 6.922230 1.410067 -13.105494 0
M  V30 42 H 6.246118 2.335803 -14.407743 0
M  V30 43 H 7.917915 1.830433 -14.493040 0
M  V30 44 H 6.594328 5.196094 -19.847365 0
M  V30 45 H 7.620515 6.141198 -12.197215 0
M  V30 46 H 6.388489 6.032101 -11.005082 0
M  V30 47 H 11.880293 8.776772 -6.001266 0
M  V30 48 H 4.634839 5.056117 -12.380330 0
M  V30 49 H 4.847773 3.767217 -13.490754 0
M  V30 50 H 7.725612 4.799481 -9.506698 0
M  V30 51 H 8.870635 4.270778 -10.689296 0
M  V30 52 H 7.579174 4.874589 -17.672181 0
M  V30 53 H 8.641521 7.638795 -7.878346 0
M  V30 54 H 8.149032 5.975676 -7.872415 0
M  V30 55 H 8.295763 3.047927 -12.341051 0
M  V30 56 H 6.216826 4.095354 -15.492048 0
M  V30 57 H 3.940691 5.623400 -16.695608 0
M  V30 58 H 4.301459 7.131206 -15.902987 0
M  V30 59 H 8.773951 6.055786 -5.769400 0
M  V30 60 H 10.306886 5.564390 -6.436037 0
M  V30 61 H 10.002172 5.518099 -13.025315 0
M  V30 62 H 10.211702 3.774716 -12.869241 0
M  V30 63 H 10.351132 4.570666 -14.458784 0
M  V30 END ATOM
M  V30 BEGIN BOND
M  V30 1 1 3 1
M  V30 2 1 5 4
M  V30 3 2 9 7
M  V30 4 1 10 2
M  V30 5 1 10 5
M  V30 6 1 11 5
M  V30 7 1 14 3
M  V30 8 1 15 12
M  V30 9 1 16 4
M  V30 10 1 16 6
M  V30 11 1 17 12
M  V30 12 1 18 2
M  V30 13 1 18 15
M  V30 14 1 19 8
M  V30 15 2 19 14
M  V30 16 1 20 10
M  V30 17 1 21 12
M  V30 18 1 21 13
M  V30 19 1 22 7
M  V30 20 1 22 8
M  V30 21 1 23 4
M  V30 22 1 24 17
M  V30 23 1 24 22
M  V30 24 1 25 1
M  V30 25 1 25 8
M  V30 26 1 26 6
M  V30 27 1 26 20
M  V30 28 1 27 7
M  V30 29 1 27 21
M  V30 30 1 28 27
M  V30 31 1 29 1
M  V30 32 1 30 1
M  V30 33 1 31 2
M  V30 34 1 32 2
M  V30 35 1 33 3
M  V30 36 1 34 3
M  V30 37 1 4 35 CFG=1
M  V30 38 1 5 36 CFG=3
M  V30 39 1 37 6
M  V30 40 1 38 6
M  V30 41 1 8 39 CFG=1
M  V30 42 1 12 40 CFG=1
M  V30 43 1 41 13
M  V30 44 1 42 13
M  V30 45 1 43 13
M  V30 46 1 44 14
M  V30 47 1 45 15
M  V30 48 1 46 15
M  V30 49 1 47 16
M  V30 50 1 48 17
M  V30 51 1 49 17
M  V30 52 1 50 18
M  V30 53 1 51 18
M  V30 54 1 52 19
M  V30 55 1 53 20
M  V30 56 1 54 20
M  V30 57 1 21 55 CFG=1
M  V30 58 1 22 56 CFG=3
M  V30 59 1 57 25
M  V30 60 1 58 25
M  V30 61 1 59 26
M  V30 62 1 60 26
M  V30 63 1 61 28
M  V30 64 1 62 28
M  V30 65 1 63 28
M  V30 END BOND
M  V30 END CTAB
M  END
>  <i_epik_Tot_Q>  (1) 
0

>  <i_epik_Tot_abs_Q>  (1) 
0

>  <i_i_glide_confnum>  (1) 
292

>  <i_i_glide_lignum>  (1) 
85

>  <i_i_glide_posenum>  (1) 
383

>  <i_i_glide_rotatable_bonds>  (1) 
5

>  <i_lp_mmshare_version>  (1) 
72125

>  <i_m_source_file_index>  (1) 
46

>  <i_f3d_flags>  (1) 
0

>  <num_sample>  (1) 
100

>  <b_lp_Chiralities_Consistent>  (1) 
1

>  <r_epik_Charging_Adjusted_Penalty>  (1) 
0.015133208647659156

>  <r_epik_Ionization_Penalty>  (1) 
0.015206278080010002

>  <r_epik_Ionization_Penalty_Charging>  (1) 
0

>  <r_epik_Ionization_Penalty_Neutral>  (1) 
0.015206278080010002

>  <r_epik_State_Penalty>  (1) 
0.015133208647659156

>  <r_glide_ring_energy>  (1) 
0.92753117685039699

>  <r_i_docking_score>  (1) 
-3.8926806613409024

>  <r_i_glide_ecoul>  (1) 
-1.2843586203520942

>  <r_i_glide_eff_state_penalty>  (1) 
0.015133208647659156

>  <r_i_glide_einternal>  (1) 
5.7966078728190578

>  <r_i_glide_emodel>  (1) 
-16.878756831406026

>  <r_i_glide_emodel_strain>  (1) 
0.63764949066593601

>  <r_i_glide_energy>  (1) 
-16.263633450918412

>  <r_i_glide_erotb>  (1) 
0.45657733151366331

>  <r_i_glide_esite>  (1) 
0

>  <r_i_glide_evdw>  (1) 
-14.979274830566318

>  <r_i_glide_gscore>  (1) 
-3.9078138699885616

>  <r_i_glide_gscore_strain>  (1) 
0

>  <r_i_glide_hbond>  (1) 
0

>  <r_i_glide_ligand_efficiency>  (1) 
-0.13902430933360366

>  <r_i_glide_ligand_efficiency_ln>  (1) 
-0.89854499070808491

>  <r_i_glide_ligand_efficiency_sa>  (1) 
-0.42215968454505165

>  <r_i_glide_lipo>  (1) 
-1.8758181931594424

>  <r_i_glide_metal>  (1) 
-0

>  <r_i_glide_rewards>  (1) 
-1.5469554737616524

>  <r_lp_Energy>  (1) 
32.929097999999996

>  <s_epik_cmdline>  (1) 
J2VwaWtfcHl0aG9uJywgJy1waHQnLCAnMS4wJywgJy1waCcsICc3LjQnLCAnLXRuJywgJzgnLCAnLW1hJywgJzUwMCcsICctaW1hZScsICc8aW5maWxlLm1hZT4nLCAnLW9tYWUnLCAnPG91dGZpbGUubWFlPic=

>  <s_epik_input>  (1) 
W0NIMl0xW0NIMl1bQ0gyXVtDSF09W0NIXVtDQEhdMVtDQEBIXShDMj1PKU9bQ0gyXVtDQEBIXShbQ0BASF0oW0NIM10pTjJbQ0gzXSlbQ0gyXVtDSDJdW0NIMl1OKFtDQEBIXShDbClbQ0BASF0zRilbQ0gyXVtDSDJdW0NIMl1bTkhdMw==

>  <s_glide_docking_method>  (1) 
confgen

>  <s_i_glide_gridfile>  (1) 
gpcr_drd2_6luq_protein_autoprepared_prepared

>  <s_lp_Force_Field>  (1) 
S-OPLS

>  <s_lp_Variant>  (1) 
DiffSBDD_45_num_sample_100-4

>  <s_m_source_file>  (1) 
generated__ligand_DiffSBDD_2026-05-06_prepared.sdf

>  <GenAI_Model>  (1) 
DiffSBDD

>  <Protein>  (1) 
generic_title2

$$$$
DiffSBDD_94_num_sample_100
     RDKit          3D

  0  0  0  0  0  0  0  0  0  0999 V3000
M  V30 BEGIN CTAB
M  V30 COUNTS 55 56 0 0 1
M  V30 BEGIN ATOM
M  V30 1 C 5.402109 6.475027 -17.654778 0
M  V30 2 C 6.078605 4.143797 -18.745718 0
M  V30 3 C 6.086200 5.952822 -20.663509 0 CFG=1
M  V30 4 N 8.288428 7.213920 -20.977928 0
M  V30 5 C 8.975322 8.400180 -21.491664 0
M  V30 6 S 7.873775 5.369299 -16.958247 0
M  V30 7 F 6.035208 5.220745 -21.777802 0
M  V30 8 C 9.450833 6.437689 -9.735800 0
M  V30 9 C 6.447144 5.461243 -18.093025 0 CFG=2
M  V30 10 C 8.568484 6.686657 -12.136384 0 CFG=1
M  V30 11 C 8.203591 4.906383 -20.062320 0
M  V30 12 C 9.470079 5.574856 -8.466674 0
M  V30 13 C 7.161838 2.331045 -14.137829 0
M  V30 14 C 9.927818 6.569716 -6.195345 0
M  V30 15 C 8.086581 5.947620 -13.314092 0
M  V30 16 C 7.212124 4.575621 -15.461402 0 CFG=1
M  V30 17 O 7.753866 7.815115 -11.891669 0
M  V30 18 C 7.550607 3.068672 -15.432856 0
M  V30 19 C 8.994936 6.130525 -20.555633 0
M  V30 20 C 6.794285 5.195837 -19.561502 0 CFG=1
M  V30 21 C 7.703134 5.327064 -14.293404 0
M  V30 22 O 10.225308 6.095967 -20.568624 0
M  V30 23 C 6.814086 7.276301 -20.938922 0
M  V30 24 C 10.364114 6.169485 -7.398057 0
M  V30 25 C 8.635199 5.803184 -10.874304 0
M  V30 26 H 4.499369 6.401501 -18.259732 0
M  V30 27 H 5.112867 6.314322 -16.617349 0
M  V30 28 H 5.800186 7.485601 -17.744952 0
M  V30 29 H 6.643872 3.256033 -18.471387 0
M  V30 30 H 5.034944 3.962051 -18.992993 0
M  V30 31 H 5.045486 6.138851 -20.401832 0
M  V30 32 H 9.335865 8.216872 -22.504535 0
M  V30 33 H 8.311867 9.265092 -21.523350 0
M  V30 34 H 9.832909 8.669845 -20.872207 0
M  V30 35 H 10.470388 6.612936 -10.078759 0
M  V30 36 H 9.042662 7.417272 -9.487167 0
M  V30 37 H 9.569983 7.037642 -12.387683 0
M  V30 38 H 8.787224 4.384071 -19.305750 0
M  V30 39 H 8.137618 4.205213 -20.894702 0
M  V30 40 H 8.454781 5.467008 -8.080343 0
M  V30 41 H 9.829321 4.570508 -8.692836 0
M  V30 42 H 7.333085 1.258889 -14.238359 0
M  V30 43 H 7.752392 2.670762 -13.286297 0
M  V30 44 H 6.109931 2.475920 -13.891742 0
M  V30 45 H 10.606861 6.987145 -5.467518 0
M  V30 46 H 8.885851 6.484172 -5.925009 0
M  V30 47 H 6.133054 4.699848 -15.439860 0
M  V30 48 H 7.434847 7.769327 -10.979630 0
M  V30 49 H 7.049432 2.580756 -16.268498 0
M  V30 50 H 8.618097 2.931949 -15.608178 0
M  V30 51 H 6.551033 7.985914 -20.153789 0
M  V30 52 H 6.442847 7.706396 -21.870104 0
M  V30 53 H 11.411362 6.266146 -7.643369 0
M  V30 54 H 7.626308 5.574869 -10.525097 0
M  V30 55 H 9.093321 4.843947 -11.122381 0
M  V30 END ATOM
M  V30 BEGIN BOND
M  V30 1 1 5 4
M  V30 2 1 7 3
M  V30 3 1 9 1
M  V30 4 1 9 2
M  V30 5 1 9 6 CFG=1
M  V30 6 1 12 8
M  V30 7 1 15 10
M  V30 8 1 16 6
M  V30 9 1 17 10
M  V30 10 1 18 13
M  V30 11 1 18 16
M  V30 12 1 19 4
M  V30 13 1 19 11
M  V30 14 1 20 2 CFG=3
M  V30 15 1 20 3
M  V30 16 1 20 9
M  V30 17 1 20 11
M  V30 18 3 21 15
M  V30 19 1 21 16
M  V30 20 2 22 19
M  V30 21 1 23 3
M  V30 22 1 23 4
M  V30 23 1 24 12
M  V30 24 2 24 14
M  V30 25 1 25 8
M  V30 26 1 25 10
M  V30 27 1 26 1
M  V30 28 1 27 1
M  V30 29 1 28 1
M  V30 30 1 29 2
M  V30 31 1 30 2
M  V30 32 1 3 31 CFG=1
M  V30 33 1 32 5
M  V30 34 1 33 5
M  V30 35 1 34 5
M  V30 36 1 35 8
M  V30 37 1 36 8
M  V30 38 1 10 37 CFG=3
M  V30 39 1 38 11
M  V30 40 1 39 11
M  V30 41 1 40 12
M  V30 42 1 41 12
M  V30 43 1 42 13
M  V30 44 1 43 13
M  V30 45 1 44 13
M  V30 46 1 45 14
M  V30 47 1 46 14
M  V30 48 1 16 47 CFG=3
M  V30 49 1 48 17
M  V30 50 1 49 18
M  V30 51 1 50 18
M  V30 52 1 51 23
M  V30 53 1 52 23
M  V30 54 1 53 24
M  V30 55 1 54 25
M  V30 56 1 55 25
M  V30 END BOND
M  V30 END CTAB
M  END
>  <i_epik_Tot_Q>  (1) 
0

>  <i_epik_Tot_abs_Q>  (1) 
0

>  <i_i_glide_confnum>  (1) 
38

>  <i_i_glide_lignum>  (1) 
189

>  <i_i_glide_posenum>  (1) 
349

>  <i_i_glide_rotatable_bonds>  (1) 
10

>  <i_lp_mmshare_version>  (1) 
72125

>  <i_m_source_file_index>  (1) 
95

>  <i_f3d_flags>  (1) 
0

>  <num_sample>  (1) 
100

>  <b_lp_Chiralities_Consistent>  (1) 
1

>  <r_epik_Charging_Adjusted_Penalty>  (1) 
0

>  <r_epik_Ionization_Penalty>  (1) 
2.8843446265645777e-07

>  <r_epik_Ionization_Penalty_Charging>  (1) 
0

>  <r_epik_Ionization_Penalty_Neutral>  (1) 
2.8843446265645777e-07

>  <r_epik_State_Penalty>  (1) 
-0

>  <r_glide_ring_energy>  (1) 
0

>  <r_i_docking_score>  (1) 
-3.8882624392057736

>  <r_i_glide_ecoul>  (1) 
-4.956080070356581

>  <r_i_glide_eff_state_penalty>  (1) 
-0

>  <r_i_glide_einternal>  (1) 
2.0545372256654817

>  <r_i_glide_emodel>  (1) 
-34.713250074831052

>  <r_i_glide_emodel_strain>  (1) 
0.060879976422981485

>  <r_i_glide_energy>  (1) 
-28.771926315145741

>  <r_i_glide_erotb>  (1) 
1.1406536467652393

>  <r_i_glide_esite>  (1) 
0

>  <r_i_glide_evdw>  (1) 
-23.81584624478916

>  <r_i_glide_gscore>  (1) 
-3.8882624392057736

>  <r_i_glide_gscore_strain>  (1) 
0

>  <r_i_glide_hbond>  (1) 
-0.16

>  <r_i_glide_ligand_efficiency>  (1) 
-0.15553049756823095

>  <r_i_glide_ligand_efficiency_ln>  (1) 
-0.92163471991433743

>  <r_i_glide_ligand_efficiency_sa>  (1) 
-0.45477393372258035

>  <r_i_glide_lipo>  (1) 
-1.5351401068520127

>  <r_i_glide_metal>  (1) 
-0

>  <r_i_glide_rewards>  (1) 
-1.3995716563260545

>  <r_lp_Energy>  (1) 
17.436699000000001

>  <r_lp_tautomer_probability>  (1) 
1

>  <s_epik_cmdline>  (1) 
J2VwaWtfcHl0aG9uJywgJy1waHQnLCAnMS4wJywgJy1waCcsICc3LjQnLCAnLXRuJywgJzgnLCAnLW1hJywgJzUwMCcsICctaW1hZScsICc8aW5maWxlLm1hZT4nLCAnLW9tYWUnLCAnPG91dGZpbGUubWFlPic=

>  <s_epik_input>  (1) 
W0NIMl0xQyg9TylOKFtDSDNdKVtDSDJdW0NAQEhdKEYpW0NAQF0xMltDSDJdW0NAQF0yKFtDSDNdKVNbQ0BASF0oW0NIMl1bQ0gzXSlDI0NbQ0BASF0oW09IXSlbQ0gyXVtDSDJdW0NIMl1bQ0hdPVtDSDJd

>  <s_glide_docking_method>  (1) 
confgen

>  <s_i_glide_gridfile>  (1) 
gpcr_drd2_6luq_protein_autoprepared_prepared

>  <s_lp_Force_Field>  (1) 
S-OPLS

>  <s_lp_Variant>  (1) 
DiffSBDD_94_num_sample_100-1

>  <s_m_source_file>  (1) 
generated__ligand_DiffSBDD_2026-05-06_prepared.sdf

>  <GenAI_Model>  (1) 
DiffSBDD

>  <Protein>  (1) 
generic_title2

$$$$
DiffSBDD_33_num_sample_100
     RDKit          3D

  0  0  0  0  0  0  0  0  0  0999 V3000
M  V30 BEGIN CTAB
M  V30 COUNTS 81 82 0 0 1
M  V30 BEGIN ATOM
M  V30 1 C 9.024139 4.304463 -11.422849 0
M  V30 2 C 11.477225 8.669285 -8.981171 0
M  V30 3 C 9.982799 6.288932 -8.704099 0
M  V30 4 C 5.306408 7.184541 -20.478079 0
M  V30 5 C 6.465697 4.567017 -11.469130 0
M  V30 6 C 9.179973 4.994322 -8.543738 0
M  V30 7 C 10.652061 6.833651 -7.595617 0
M  V30 8 C 7.847996 4.569145 -10.789486 0
M  V30 9 C 9.233905 4.050374 -12.840467 0
M  V30 10 C 8.394963 4.171243 -13.837078 0
M  V30 11 C 5.690756 5.887549 -11.360974 0
M  V30 12 C 6.722618 4.671625 -15.601061 0
M  V30 13 C 5.214297 4.054837 -20.702975 0
M  V30 14 C 6.253425 7.030920 -12.228699 0
M  V30 15 C 4.699591 8.571237 -20.233624 0
M  V30 16 C 11.069650 9.606382 -5.781554 0 CFG=2
M  V30 17 C 7.825644 4.870070 -9.287479 0
M  V30 18 C 5.827347 2.655981 -20.874583 0
M  V30 19 C 8.073758 4.239227 -15.106760 0
M  V30 20 C 10.816486 8.114278 -10.090353 0
M  V30 21 C 5.194452 6.238110 -19.266716 0 CFG=1
M  V30 22 C 5.759281 6.974446 -13.689882 0
M  V30 23 C 11.423200 9.769144 -4.293718 0
M  V30 24 O 9.834583 8.969242 -5.891663 0
M  V30 25 C 10.063129 6.942305 -9.953053 0
M  V30 26 N 13.295474 9.369281 -6.691662 0
M  V30 27 C 5.836088 4.856740 -19.541261 0
M  V30 28 C 11.388505 8.035960 -7.726900 0
M  V30 29 C 12.028550 8.667614 -6.486930 0 CFG=2
M  V30 30 C 6.850787 7.107338 -14.770189 0
M  V30 31 O 7.170099 2.755717 -21.299175 0
M  V30 32 O 5.892937 6.850773 -18.183612 0
M  V30 33 C 6.662673 6.166026 -15.985553 0 CFG=2
M  V30 34 C 5.444708 6.529300 -16.867700 0
M  V30 35 H 9.908136 4.300528 -10.816887 0
M  V30 36 H 12.034867 9.588395 -9.090902 0
M  V30 37 H 4.798391 6.749387 -21.337062 0
M  V30 38 H 6.351888 7.294711 -20.765757 0
M  V30 39 H 6.390577 4.174210 -12.470196 0
M  V30 40 H 5.893677 3.830827 -10.901492 0
M  V30 41 H 9.833490 4.137548 -8.706890 0
M  V30 42 H 8.926998 4.943100 -7.489230 0
M  V30 43 H 10.580904 6.346574 -6.633124 0
M  V30 44 H 10.234859 3.769639 -13.090761 0
M  V30 45 H 4.648134 5.710822 -11.604905 0
M  V30 46 H 5.632776 6.171580 -10.315308 0
M  V30 47 H 5.938085 4.367453 -14.909158 0
M  V30 48 H 6.634828 4.075318 -16.504848 0
M  V30 49 H 5.314896 4.596422 -21.642357 0
M  V30 50 H 4.145791 3.950120 -20.525531 0
M  V30 51 H 5.939567 7.982822 -11.795285 0
M  V30 52 H 7.342675 7.029167 -12.160941 0
M  V30 53 H 4.728575 9.172530 -21.142515 0
M  V30 54 H 5.254933 9.111137 -19.469259 0
M  V30 55 H 3.659572 8.504427 -19.912116 0
M  V30 56 H 11.029517 10.570674 -6.285543 0
M  V30 57 H 7.266011 5.769322 -9.088742 0
M  V30 58 H 7.250894 4.073957 -8.819943 0
M  V30 59 H 5.785533 2.091109 -19.943183 0
M  V30 60 H 5.273474 2.084659 -21.619729 0
M  V30 61 H 8.797825 3.988808 -15.867585 0
M  V30 62 H 10.873402 8.591252 -11.048718 0
M  V30 63 H 4.138127 6.128825 -19.023458 0
M  V30 64 H 5.190084 6.060296 -13.834065 0
M  V30 65 H 5.034803 7.769598 -13.845657 0
M  V30 66 H 12.428013 10.169096 -4.185805 0
M  V30 67 H 11.433685 8.812485 -3.773710 0
M  V30 68 H 10.729425 10.439914 -3.781883 0
M  V30 69 H 9.723256 8.681640 -6.789358 0
M  V30 70 H 9.551932 6.550873 -10.807982 0
M  V30 71 H 14.012947 9.025484 -6.055597 0
M  V30 72 H 13.639621 9.206013 -7.637449 0
M  V30 73 H 6.901351 4.995287 -19.729445 0
M  V30 74 H 5.772120 4.250431 -18.640056 0
M  V30 75 H 12.143982 7.849014 -5.783067 0
M  V30 76 H 6.897628 8.142728 -15.108894 0
M  V30 77 H 7.830166 6.924150 -14.333348 0
M  V30 78 H 7.194422 3.172519 -22.147242 0
M  V30 79 H 7.526634 6.300626 -16.627122 0
M  V30 80 H 4.930501 7.405616 -16.473852 0
M  V30 81 H 4.708287 5.730141 -16.864081 0
M  V30 END ATOM
M  V30 BEGIN BOND
M  V30 1 1 6 3
M  V30 2 2 7 3
M  V30 3 2 8 1
M  V30 4 1 8 5
M  V30 5 1 9 1
M  V30 6 2 10 9
M  V30 7 1 11 5
M  V30 8 1 14 11
M  V30 9 1 15 4
M  V30 10 1 17 6
M  V30 11 1 17 8
M  V30 12 1 18 13
M  V30 13 2 19 10
M  V30 14 1 19 12
M  V30 15 1 20 2
M  V30 16 1 21 4
M  V30 17 1 22 14
M  V30 18 1 23 16
M  V30 19 1 24 16
M  V30 20 1 25 3
M  V30 21 2 25 20
M  V30 22 1 27 13
M  V30 23 1 27 21
M  V30 24 2 28 2
M  V30 25 1 28 7
M  V30 26 1 29 16
M  V30 27 1 29 26
M  V30 28 1 29 28
M  V30 29 1 30 22
M  V30 30 1 31 18
M  V30 31 1 32 21
M  V30 32 1 33 12
M  V30 33 1 33 30
M  V30 34 1 34 32
M  V30 35 1 34 33
M  V30 36 1 35 1
M  V30 37 1 36 2
M  V30 38 1 37 4
M  V30 39 1 38 4
M  V30 40 1 39 5
M  V30 41 1 40 5
M  V30 42 1 41 6
M  V30 43 1 42 6
M  V30 44 1 43 7
M  V30 45 1 44 9
M  V30 46 1 45 11
M  V30 47 1 46 11
M  V30 48 1 47 12
M  V30 49 1 48 12
M  V30 50 1 49 13
M  V30 51 1 50 13
M  V30 52 1 51 14
M  V30 53 1 52 14
M  V30 54 1 53 15
M  V30 55 1 54 15
M  V30 56 1 55 15
M  V30 57 1 16 56 CFG=3
M  V30 58 1 57 17
M  V30 59 1 58 17
M  V30 60 1 59 18
M  V30 61 1 60 18
M  V30 62 1 61 19
M  V30 63 1 62 20
M  V30 64 1 21 63 CFG=1
M  V30 65 1 64 22
M  V30 66 1 65 22
M  V30 67 1 66 23
M  V30 68 1 67 23
M  V30 69 1 68 23
M  V30 70 1 69 24
M  V30 71 1 70 25
M  V30 72 1 71 26
M  V30 73 1 72 26
M  V30 74 1 73 27
M  V30 75 1 74 27
M  V30 76 1 29 75 CFG=1
M  V30 77 1 76 30
M  V30 78 1 77 30
M  V30 79 1 78 31
M  V30 80 1 33 79 CFG=3
M  V30 81 1 80 34
M  V30 82 1 81 34
M  V30 END BOND
M  V30 END CTAB
M  END
>  <i_epik_Tot_Q>  (1) 
0

>  <i_epik_Tot_abs_Q>  (1) 
0

>  <i_i_glide_confnum>  (1) 
330

>  <i_i_glide_lignum>  (1) 
59

>  <i_i_glide_posenum>  (1) 
379

>  <i_i_glide_rotatable_bonds>  (1) 
14

>  <i_lp_mmshare_version>  (1) 
72125

>  <i_m_source_file_index>  (1) 
34

>  <i_f3d_flags>  (1) 
0

>  <num_sample>  (1) 
100

>  <b_lp_Chiralities_Consistent>  (1) 
1

>  <r_epik_Charging_Adjusted_Penalty>  (1) 
1.2129050419488003

>  <r_epik_Ionization_Penalty>  (1) 
1.2129053275801602

>  <r_epik_Ionization_Penalty_Charging>  (1) 
0

>  <r_epik_Ionization_Penalty_Neutral>  (1) 
1.2129053275801602

>  <r_epik_State_Penalty>  (1) 
1.2129050419488003

>  <r_glide_ring_energy>  (1) 
0

>  <r_i_docking_score>  (1) 
-3.8857416656784496

>  <r_i_glide_ecoul>  (1) 
-1.1593100508894152

>  <r_i_glide_eff_state_penalty>  (1) 
1.2129050419488003

>  <r_i_glide_einternal>  (1) 
22.47500041398547

>  <r_i_glide_emodel>  (1) 
-19.813839735676453

>  <r_i_glide_emodel_strain>  (1) 
1.4626619878552916

>  <r_i_glide_energy>  (1) 
-24.854963937109073

>  <r_i_glide_erotb>  (1) 
1.0070902464162688

>  <r_i_glide_esite>  (1) 
0

>  <r_i_glide_evdw>  (1) 
-23.695653886219656

>  <r_i_glide_gscore>  (1) 
-5.0986467076272497

>  <r_i_glide_gscore_strain>  (1) 
0

>  <r_i_glide_hbond>  (1) 
0

>  <r_i_glide_ligand_efficiency>  (1) 
-0.11428651957877793

>  <r_i_glide_ligand_efficiency_ln>  (1) 
-0.8584693253103084

>  <r_i_glide_ligand_efficiency_sa>  (1) 
-0.3702439575543392

>  <r_i_glide_lipo>  (1) 
-3.6405622293718487

>  <r_i_glide_metal>  (1) 
-0

>  <r_i_glide_rewards>  (1) 
-1.1064955227272746

>  <r_lp_Energy>  (1) 
8.1818030000000004

>  <s_epik_cmdline>  (1) 
J2VwaWtfcHl0aG9uJywgJy1waHQnLCAnMS4wJywgJy1waCcsICc3LjQnLCAnLXRuJywgJzgnLCAnLW1hJywgJzUwMCcsICctaW1hZScsICc8aW5maWxlLm1hZT4nLCAnLW9tYWUnLCAnPG91dGZpbGUubWFlPic=

>  <s_epik_input>  (1) 
W0NIM11bQ0BIXShbT0hdKVtDQEhdKFtOSDJdKWMoW2NIXVtjSF1bY0hdMSlbY0hdYzFbQ0gyXVtDSDJdQ1wyPVtDSF1cW0NIXT1DPVtDSF1bQ0gyXVtDQEhdKFtDSDJdW0NIMl1bQ0gyXVtDSDJdW0NIMl0yKVtDSDJdT1tDQEBIXShbQ0gyXVtDSDNdKVtDSDJdW0NIMl1bQ0gyXVtPSF0=

>  <s_glide_docking_method>  (1) 
confgen

>  <s_i_glide_gridfile>  (1) 
gpcr_drd2_6luq_protein_autoprepared_prepared

>  <s_lp_Force_Field>  (1) 
S-OPLS

>  <s_lp_Variant>  (1) 
DiffSBDD_33_num_sample_100-2

>  <s_m_source_file>  (1) 
generated__ligand_DiffSBDD_2026-05-06_prepared.sdf

>  <GenAI_Model>  (1) 
DiffSBDD

>  <Protein>  (1) 
generic_title2

$$$$
DiffSBDD_47_num_sample_100
     RDKit          3D

  0  0  0  0  0  0  0  0  0  0999 V3000
M  V30 BEGIN CTAB
M  V30 COUNTS 60 66 0 0 1
M  V30 BEGIN ATOM
M  V30 1 C 10.580222 7.127295 -8.290077 0 CFG=1
M  V30 2 N 7.577228 4.569301 -10.219802 0
M  V30 3 N 10.025935 -0.468203 -18.021293 0
M  V30 4 C 6.254111 7.929299 -15.217477 0
M  V30 5 C 7.338022 2.844996 -16.838453 0
M  V30 6 C 9.548589 6.253463 -10.398323 0
M  V30 7 C 10.453470 7.050806 -9.768440 0
M  V30 8 C 9.356090 -1.360586 -17.286768 0
M  V30 9 N 8.078023 -1.110620 -17.091508 0
M  V30 10 N 7.739008 4.988912 -15.625662 0
M  V30 11 N 7.525530 5.478270 -12.382211 0
M  V30 12 N 6.867767 2.190789 -18.068817 0
M  V30 13 N 8.846251 5.491878 -12.539497 0
M  V30 14 C 8.973238 0.448801 -18.284433 0
M  V30 15 C 7.805809 0.057928 -17.725245 0
M  V30 16 C 8.708955 5.369480 -8.293148 0
M  V30 17 C 7.486158 4.372625 -16.924389 0
M  V30 18 N 9.094420 1.611125 -19.007761 0
M  V30 19 C 6.924006 4.719603 -11.424779 0
M  V30 20 C 6.666402 4.833781 -14.637534 0
M  V30 21 O 5.831148 4.186044 -11.618256 0
M  V30 22 O 5.624831 6.640119 -13.231703 0
M  V30 23 F 11.313363 7.775540 -10.508298 0
M  V30 24 C 6.502644 0.756919 -17.776003 0 CFG=2
M  V30 25 C 5.553874 0.152086 -18.820231 0
M  V30 26 C 7.855821 2.385667 -19.211830 0
M  V30 27 C 9.593152 6.203980 -11.821403 0
M  V30 28 C 6.798791 5.889428 -13.554390 0 CFG=1
M  V30 29 C 6.678116 7.368816 -13.871679 0 CFG=1
M  V30 30 C 9.678125 6.188953 -7.515485 0 CFG=2
M  V30 31 C 8.616965 5.385523 -9.638819 0
M  V30 32 C 10.859548 8.457599 -7.616602 0
M  V30 33 C 9.551734 7.705051 -7.409929 0 CFG=1
M  V30 34 H 7.107785 3.970085 -9.557296 0
M  V30 35 H 7.034621 8.569321 -15.615059 0
M  V30 36 H 6.050769 7.142483 -15.941750 0
M  V30 37 H 5.345850 8.520880 -15.106846 0
M  V30 38 H 8.287585 2.417248 -16.516112 0
M  V30 39 H 6.634769 2.613822 -16.040067 0
M  V30 40 H 9.834825 -2.230714 -16.873953 0
M  V30 41 H 8.607358 4.636672 -15.233298 0
M  V30 42 H 7.431414 -1.675547 -16.554249 0
M  V30 43 H 8.027628 4.756084 -7.721726 0
M  V30 44 H 6.591272 4.810335 -17.365890 0
M  V30 45 H 8.306603 4.628352 -17.594664 0
M  V30 46 H 9.956630 1.870259 -19.464079 0
M  V30 47 H 6.673002 3.836269 -14.196181 0
M  V30 48 H 5.692762 4.970294 -15.110099 0
M  V30 49 H 6.002261 0.691449 -16.808591 0
M  V30 50 H 5.300652 -0.877341 -18.565995 0
M  V30 51 H 4.623730 0.717646 -18.872068 0
M  V30 52 H 5.992442 0.148743 -19.818102 0
M  V30 53 H 7.401374 2.048295 -20.144336 0
M  V30 54 H 8.094175 3.437709 -19.361612 0
M  V30 55 H 10.366993 6.822564 -12.274799 0
M  V30 56 H 7.206647 8.057114 -13.214139 0
M  V30 57 H 10.122243 5.672843 -6.673776 0
M  V30 58 H 10.880047 9.339792 -8.252052 0
M  V30 59 H 11.574610 8.456251 -6.797138 0
M  V30 60 H 8.678033 8.148543 -7.881693 0
M  V30 END ATOM
M  V30 BEGIN BOND
M  V30 1 1 7 1
M  V30 2 2 7 6
M  V30 3 2 8 3
M  V30 4 1 9 8
M  V30 5 1 12 5
M  V30 6 1 13 11
M  V30 7 1 14 3
M  V30 8 1 15 9
M  V30 9 2 15 14
M  V30 10 1 17 5
M  V30 11 1 17 10
M  V30 12 1 18 14
M  V30 13 1 19 2
M  V30 14 1 19 11
M  V30 15 1 20 10
M  V30 16 2 21 19
M  V30 17 1 23 7
M  V30 18 1 24 12
M  V30 19 1 24 15
M  V30 20 1 25 24
M  V30 21 1 26 12
M  V30 22 1 26 18
M  V30 23 1 27 6
M  V30 24 2 27 13
M  V30 25 1 28 11
M  V30 26 1 28 20 CFG=3
M  V30 27 1 28 22
M  V30 28 1 29 4
M  V30 29 1 29 22
M  V30 30 1 29 28
M  V30 31 1 30 1
M  V30 32 1 30 16
M  V30 33 1 31 2
M  V30 34 1 31 6
M  V30 35 2 31 16
M  V30 36 1 1 32 CFG=1
M  V30 37 1 33 1
M  V30 38 1 33 30
M  V30 39 1 33 32
M  V30 40 1 34 2
M  V30 41 1 35 4
M  V30 42 1 36 4
M  V30 43 1 37 4
M  V30 44 1 38 5
M  V30 45 1 39 5
M  V30 46 1 40 8
M  V30 47 1 41 10
M  V30 48 1 42 9
M  V30 49 1 43 16
M  V30 50 1 44 17
M  V30 51 1 45 17
M  V30 52 1 46 18
M  V30 53 1 47 20
M  V30 54 1 48 20
M  V30 55 1 24 49 CFG=1
M  V30 56 1 50 25
M  V30 57 1 51 25
M  V30 58 1 52 25
M  V30 59 1 53 26
M  V30 60 1 54 26
M  V30 61 1 55 27
M  V30 62 1 29 56 CFG=1
M  V30 63 1 30 57 CFG=1
M  V30 64 1 58 32
M  V30 65 1 59 32
M  V30 66 1 33 60 CFG=3
M  V30 END BOND
M  V30 END CTAB
M  END
>  <i_epik_Tot_Q>  (1) 
0

>  <i_epik_Tot_abs_Q>  (1) 
0

>  <i_i_glide_confnum>  (1) 
250

>  <i_i_glide_lignum>  (1) 
88

>  <i_i_glide_posenum>  (1) 
264

>  <i_i_glide_rotatable_bonds>  (1) 
6

>  <i_lp_mmshare_version>  (1) 
72125

>  <i_m_source_file_index>  (1) 
48

>  <i_f3d_flags>  (1) 
2

>  <num_sample>  (1) 
100

>  <b_lp_Chiralities_Consistent>  (1) 
0

>  <r_epik_Charging_Adjusted_Penalty>  (1) 
0.98731157914139778

>  <r_epik_Ionization_Penalty>  (1) 
1.0089239767468481

>  <r_epik_Ionization_Penalty_Charging>  (1) 
0.0054720513801765243

>  <r_epik_Ionization_Penalty_Neutral>  (1) 
1.0034519253666716

>  <r_epik_State_Penalty>  (1) 
0.9818395277612213

>  <r_glide_ring_energy>  (1) 
0

>  <r_i_docking_score>  (1) 
-3.8844236725697634

>  <r_i_glide_ecoul>  (1) 
-4.0360302769819194

>  <r_i_glide_eff_state_penalty>  (1) 
0.9818395277612213

>  <r_i_glide_einternal>  (1) 
1.8947178583571631

>  <r_i_glide_emodel>  (1) 
-49.3604773656619

>  <r_i_glide_emodel_strain>  (1) 
0.22866969025224648

>  <r_i_glide_energy>  (1) 
-39.938668361956459

>  <r_i_glide_erotb>  (1) 
0.58326009776632259

>  <r_i_glide_esite>  (1) 
-0.12174255001214185

>  <r_i_glide_evdw>  (1) 
-35.902638084974541

>  <r_i_glide_gscore>  (1) 
-4.8662632003309847

>  <r_i_glide_gscore_strain>  (1) 
0

>  <r_i_glide_hbond>  (1) 
-0.18742225970422011

>  <r_i_glide_ligand_efficiency>  (1) 
-0.1177098082596898

>  <r_i_glide_ligand_efficiency_ln>  (1) 
-0.86387571231013505

>  <r_i_glide_ligand_efficiency_sa>  (1) 
-0.37755825097018136

>  <r_i_glide_lipo>  (1) 
-1.0441391760812291

>  <r_i_glide_metal>  (1) 
-0

>  <r_i_glide_rewards>  (1) 
-1.6956828665037018

>  <r_lp_Energy>  (1) 
73.522155999999995

>  <r_lp_tautomer_probability>  (1) 
0.94542902837213583

>  <s_epik_Chemistry_Notes>  (1) 
This compound has an imine and may undergo hydrolysis. This compound contains an acetal/aminal-like group ( X-CH(R)-Y where X, Y are N, S, or O) that may be acid/base labile, releasing an aldehyde.

>  <s_epik_cmdline>  (1) 
J2VwaWtfcHl0aG9uJywgJy1waHQnLCAnMS4wJywgJy1waCcsICc3LjQnLCAnLXRuJywgJzgnLCAnLW1hJywgJzUwMCcsICctaW1hZScsICc8aW5maWxlLm1hZT4nLCAnLW9tYWUnLCAnPG91dGZpbGUubWFlPic=

>  <s_epik_input>  (1) 
W0NIMl0xW0NAQEhdMltDQEhdKEMxMjMpW0NIXT1DNEMoPUMzRilbQ0hdPU5OKEMoPU8pW05IXTQpW0NAXTUoT1tDQEBIXTVbQ0gzXSlbQ0gyXVtOSF1bQ0gyXVtDSDJdTihbQ0gyXVtOSF02KVtDQEBIXShbQ0gzXSlbQ0BIXShDNjcpTj1bQ0hdTj03

>  <s_glide_docking_method>  (1) 
confgen

>  <s_i_glide_gridfile>  (1) 
gpcr_drd2_6luq_protein_autoprepared_prepared

>  <s_lp_Force_Field>  (1) 
S-OPLS

>  <s_lp_Variant>  (1) 
DiffSBDD_47_num_sample_100-2

>  <s_m_source_file>  (1) 
generated__ligand_DiffSBDD_2026-05-06_prepared.sdf

>  <GenAI_Model>  (1) 
DiffSBDD

>  <Protein>  (1) 
generic_title2

$$$$
DiffSBDD_5_num_sample_100
     RDKit          3D

  0  0  0  0  0  0  0  0  0  0999 V3000
M  V30 BEGIN CTAB
M  V30 COUNTS 68 72 0 0 1
M  V30 BEGIN ATOM
M  V30 1 N 10.202009 6.969724 -10.808911 0
M  V30 2 C 10.486508 8.340711 -10.527875 0
M  V30 3 C 4.723823 5.586833 -21.512227 0
M  V30 4 C 9.721230 7.087100 -7.557858 0
M  V30 5 C 4.685881 8.147140 -21.222136 0 CFG=2
M  V30 6 C 9.299958 4.795065 -13.233874 0
M  V30 7 C 6.876920 4.222356 -13.559359 0
M  V30 8 C 4.822042 6.826921 -17.117050 0
M  V30 9 C 9.939248 8.969848 -9.281675 0
M  V30 10 O 6.849760 4.745558 -10.490402 0
M  V30 11 C 7.957021 4.433122 -11.311154 0 CFG=2
M  V30 12 C 5.088643 9.383971 -20.380920 0
M  V30 13 C 5.429674 6.827733 -20.907809 0 CFG=2
M  V30 14 N 6.804919 4.748628 -14.895709 0
M  V30 15 C 9.378290 6.166940 -9.925480 0 CFG=1
M  V30 16 C 6.712223 5.809291 -18.945704 0
M  V30 17 O 6.333899 7.769625 -22.871352 0
M  V30 18 C 6.741337 7.130634 -21.669261 0 CFG=2
M  V30 19 C 9.324260 4.830248 -10.744777 0 CFG=2
M  V30 20 C 6.858319 5.557561 -17.573545 0
M  V30 21 C 4.659308 7.051590 -18.485317 0
M  V30 22 C 5.912354 6.074761 -16.654046 0
M  V30 23 C 7.876161 4.994164 -12.710991 0 CFG=1
M  V30 24 C 5.086429 8.422537 -22.672859 0
M  V30 25 C 6.042865 5.795433 -15.197842 0
M  V30 26 C 5.609813 6.560811 -19.408593 0
M  V30 27 C 10.628097 6.402558 -11.893060 0
M  V30 28 F 7.510562 6.060204 -21.883029 0
M  V30 29 C 10.431805 8.393247 -7.943668 0
M  V30 30 O 5.434725 6.460021 -14.362220 0
M  V30 31 O 11.336907 6.950521 -12.738556 0
M  V30 32 C 10.199702 4.986563 -12.019655 0 CFG=2
M  V30 33 C 9.973036 5.938723 -8.528178 0
M  V30 34 H 11.566454 8.515316 -10.586519 0
M  V30 35 H 10.024157 8.838824 -11.382398 0
M  V30 36 H 4.560441 5.676949 -22.588682 0
M  V30 37 H 5.324688 4.690908 -21.336578 0
M  V30 38 H 3.763440 5.386276 -21.038367 0
M  V30 39 H 10.057099 6.786607 -6.562954 0
M  V30 40 H 8.640262 7.258093 -7.478267 0
M  V30 41 H 3.609665 8.019521 -21.126172 0
M  V30 42 H 9.427829 3.777399 -13.596022 0
M  V30 43 H 9.511325 5.475822 -14.059632 0
M  V30 44 H 7.150589 3.172667 -13.645096 0
M  V30 45 H 5.887272 4.224785 -13.102476 0
M  V30 46 H 4.093929 7.213575 -16.417508 0
M  V30 47 H 10.347055 9.955318 -9.491047 0
M  V30 48 H 8.853707 9.036944 -9.317025 0
M  V30 49 H 6.887368 5.668947 -10.261853 0
M  V30 50 H 7.995528 3.373850 -11.489928 0
M  V30 51 H 6.042024 9.762924 -20.734623 0
M  V30 52 H 4.339697 10.175543 -20.463210 0
M  V30 53 H 5.259388 9.237286 -19.318083 0
M  V30 54 H 7.266825 4.241759 -15.637024 0
M  V30 55 H 8.386950 6.568860 -9.863612 0
M  V30 56 H 7.437910 5.419228 -19.641415 0
M  V30 57 H 7.348214 7.837112 -21.101376 0
M  V30 58 H 9.698200 4.006021 -10.132363 0
M  V30 59 H 7.700364 4.974870 -17.225265 0
M  V30 60 H 3.807657 7.612017 -18.830624 0
M  V30 61 H 7.618209 6.052176 -12.642342 0
M  V30 62 H 4.351997 8.013612 -23.362603 0
M  V30 63 H 5.182781 9.489500 -22.884336 0
M  V30 64 H 11.515446 8.273556 -7.956110 0
M  V30 65 H 10.214291 9.115933 -7.157879 0
M  V30 66 H 11.034829 4.308463 -11.895337 0
M  V30 67 H 11.034824 5.761443 -8.587229 0
M  V30 68 H 9.527556 5.044779 -8.096353 0
M  V30 END ATOM
M  V30 BEGIN BOND
M  V30 1 1 2 1
M  V30 2 1 9 2
M  V30 3 1 11 10
M  V30 4 1 12 5
M  V30 5 1 13 3 CFG=3
M  V30 6 1 13 5
M  V30 7 1 14 7
M  V30 8 1 15 1
M  V30 9 1 18 13
M  V30 10 1 18 17
M  V30 11 1 19 11
M  V30 12 1 19 15
M  V30 13 1 20 16
M  V30 14 2 21 8
M  V30 15 1 22 8
M  V30 16 2 22 20
M  V30 17 1 23 6
M  V30 18 1 23 7
M  V30 19 1 23 11
M  V30 20 1 24 5
M  V30 21 1 24 17
M  V30 22 1 25 14
M  V30 23 1 25 22
M  V30 24 1 26 13
M  V30 25 2 26 16
M  V30 26 1 26 21
M  V30 27 1 27 1
M  V30 28 1 28 18
M  V30 29 1 29 4
M  V30 30 1 29 9
M  V30 31 2 30 25
M  V30 32 2 31 27
M  V30 33 1 32 6
M  V30 34 1 32 19
M  V30 35 1 32 27
M  V30 36 1 33 4
M  V30 37 1 33 15
M  V30 38 1 34 2
M  V30 39 1 35 2
M  V30 40 1 36 3
M  V30 41 1 37 3
M  V30 42 1 38 3
M  V30 43 1 39 4
M  V30 44 1 40 4
M  V30 45 1 5 41 CFG=3
M  V30 46 1 42 6
M  V30 47 1 43 6
M  V30 48 1 44 7
M  V30 49 1 45 7
M  V30 50 1 46 8
M  V30 51 1 47 9
M  V30 52 1 48 9
M  V30 53 1 49 10
M  V30 54 1 11 50 CFG=3
M  V30 55 1 51 12
M  V30 56 1 52 12
M  V30 57 1 53 12
M  V30 58 1 54 14
M  V30 59 1 15 55 CFG=1
M  V30 60 1 56 16
M  V30 61 1 18 57 CFG=1
M  V30 62 1 19 58 CFG=1
M  V30 63 1 59 20
M  V30 64 1 60 21
M  V30 65 1 23 61 CFG=1
M  V30 66 1 62 24
M  V30 67 1 63 24
M  V30 68 1 64 29
M  V30 69 1 65 29
M  V30 70 1 32 66 CFG=1
M  V30 71 1 67 33
M  V30 72 1 68 33
M  V30 END BOND
M  V30 END CTAB
M  END
>  <i_epik_Tot_Q>  (1) 
0

>  <i_epik_Tot_abs_Q>  (1) 
0

>  <i_i_glide_confnum>  (1) 
176

>  <i_i_glide_lignum>  (1) 
8

>  <i_i_glide_posenum>  (1) 
115

>  <i_i_glide_rotatable_bonds>  (1) 
6

>  <i_lp_mmshare_version>  (1) 
72125

>  <i_m_source_file_index>  (1) 
6

>  <i_f3d_flags>  (1) 
0

>  <num_sample>  (1) 
100

>  <b_lp_Chiralities_Consistent>  (1) 
1

>  <r_epik_Charging_Adjusted_Penalty>  (1) 
0

>  <r_epik_Ionization_Penalty>  (1) 
1.9291304558021744e-07

>  <r_epik_Ionization_Penalty_Charging>  (1) 
0

>  <r_epik_Ionization_Penalty_Neutral>  (1) 
1.9291304558021744e-07

>  <r_epik_State_Penalty>  (1) 
-0

>  <r_glide_ring_energy>  (1) 
1.2564436429042196

>  <r_i_docking_score>  (1) 
-3.8814977532992812

>  <r_i_glide_ecoul>  (1) 
-1.5370908575678932

>  <r_i_glide_eff_state_penalty>  (1) 
-0

>  <r_i_glide_einternal>  (1) 
1.885313848561168

>  <r_i_glide_emodel>  (1) 
-19.190067508404368

>  <r_i_glide_emodel_strain>  (1) 
2.5926116223082829

>  <r_i_glide_energy>  (1) 
-16.385768191029747

>  <r_i_glide_erotb>  (1) 
0.47823198043206561

>  <r_i_glide_esite>  (1) 
-0.043814989520516288

>  <r_i_glide_evdw>  (1) 
-14.848677333461856

>  <r_i_glide_gscore>  (1) 
-3.8814977532992812

>  <r_i_glide_gscore_strain>  (1) 
0

>  <r_i_glide_hbond>  (1) 
0

>  <r_i_glide_ligand_efficiency>  (1) 
-0.11762114403937216

>  <r_i_glide_ligand_efficiency_ln>  (1) 
-0.86322500301397898

>  <r_i_glide_ligand_efficiency_sa>  (1) 
-0.37727385743967018

>  <r_i_glide_lipo>  (1) 
-2.1670418218710163

>  <r_i_glide_metal>  (1) 
-0

>  <r_i_glide_rewards>  (1) 
-1.1758754270315375

>  <r_lp_Energy>  (1) 
32.426643999999996

>  <r_lp_tautomer_probability>  (1) 
1

>  <s_epik_cmdline>  (1) 
J2VwaWtfcHl0aG9uJywgJy1waHQnLCAnMS4wJywgJy1waCcsICc3LjQnLCAnLXRuJywgJzgnLCAnLW1hJywgJzUwMCcsICctaW1hZScsICc8aW5maWxlLm1hZT4nLCAnLW9tYWUnLCAnPG91dGZpbGUubWFlPic=

>  <s_epik_input>  (1) 
W0NIMl0xW0NIMl1bQ0gyXVtDSDJdW0NIMl1bQ0BASF0oTjEyKVtDQEBIXTNbQ0BIXShDMj1PKVtDSDJdW0NASF0oW0NAQEhdM1tPSF0pW0NIMl1bTkhdQyg9TyljNFtjSF1bY0hdYyhbY0hdW2NIXTQpW0NAQF01KFtDSDNdKVtDQEBIXShbQ0gzXSlbQ0gyXU9bQ0BASF01Rg==

>  <s_glide_docking_method>  (1) 
confgen

>  <s_i_glide_gridfile>  (1) 
gpcr_drd2_6luq_protein_autoprepared_prepared

>  <s_lp_Force_Field>  (1) 
S-OPLS

>  <s_lp_Variant>  (1) 
DiffSBDD_5_num_sample_100-1

>  <s_m_source_file>  (1) 
generated__ligand_DiffSBDD_2026-05-06_prepared.sdf

>  <GenAI_Model>  (1) 
DiffSBDD

>  <Protein>  (1) 
generic_title2

$$$$
DiffSBDD_80_num_sample_100
     RDKit          3D

  0  0  0  0  0  0  0  0  0  0999 V3000
M  V30 BEGIN CTAB
M  V30 COUNTS 57 60 0 0 1
M  V30 BEGIN ATOM
M  V30 1 C 9.567792 2.558539 -17.511569 0
M  V30 2 C 6.361420 4.639338 -14.931135 0
M  V30 3 O 5.518718 1.470651 -18.770471 0
M  V30 4 C 7.879124 4.511119 -11.333727 0
M  V30 5 C 6.234863 0.628193 -18.231699 0
M  V30 6 C 7.504525 6.376068 -13.499482 0
M  V30 7 C 7.698537 0.922557 -17.887124 0
M  V30 8 C 5.704154 -0.756121 -17.882309 0
M  V30 9 C 6.853604 5.154891 -17.201373 0
M  V30 10 C 7.257048 2.879754 -16.261055 0 CFG=2
M  V30 11 C 7.972595 6.834271 -12.150107 0 CFG=1
M  V30 12 O 11.833670 7.762932 -7.659884 0 CHG=-1
M  V30 13 C 9.034874 6.224557 -10.039146 0
M  V30 14 C 7.852804 2.268489 -14.983698 0
M  V30 15 C 8.285173 5.771220 -11.154436 0
M  V30 16 C 10.045554 6.143327 -7.721159 0
M  V30 17 C 7.237649 4.077089 -12.585739 0
M  V30 18 F 11.079442 5.347998 -7.491653 0
M  V30 19 C 7.074727 4.963532 -13.635353 0
M  V30 20 C 10.113223 3.992935 -17.454957 0
M  V30 21 C 9.240659 5.553900 -8.894542 0
M  V30 22 C 9.564896 7.508255 -10.241546 0
M  V30 23 C 8.022201 2.403890 -17.549548 0 CFG=1
M  V30 24 O 7.434841 7.186860 -14.421137 0
M  V30 25 S 9.231451 8.169304 -11.852455 0
M  V30 26 N 7.249859 4.337434 -16.052246 0
M  V30 27 F 9.289968 6.104910 -6.622966 0
M  V30 28 C 6.782790 2.683662 -12.701776 0
M  V30 29 C 6.975293 1.901330 -13.791841 0
M  V30 30 C 10.264044 8.180910 -9.300416 0
M  V30 31 C 10.546707 7.645867 -7.891784 0 CFG=2
M  V30 32 H 9.990536 1.981255 -16.691669 0
M  V30 33 H 9.977698 2.104484 -18.414233 0
M  V30 34 H 5.665034 3.847621 -14.691674 0
M  V30 35 H 5.711151 5.484022 -15.167941 0
M  V30 36 H 8.104923 3.772820 -10.586002 0
M  V30 37 H 8.001702 0.268267 -17.071272 0
M  V30 38 H 8.285706 0.613721 -18.751440 0
M  V30 39 H 6.303933 -1.524928 -18.370011 0
M  V30 40 H 4.670273 -0.864293 -18.210380 0
M  V30 41 H 5.743463 -0.917638 -16.804768 0
M  V30 42 H 7.521694 5.030746 -18.050191 0
M  V30 43 H 6.913764 6.209769 -16.931374 0
M  V30 44 H 5.834840 4.969299 -17.535104 0
M  V30 45 H 6.234870 2.525798 -16.350779 0
M  V30 46 H 7.065088 7.281504 -11.743109 0
M  V30 47 H 8.366752 1.337997 -15.217301 0
M  V30 48 H 8.634837 2.924327 -14.611572 0
M  V30 49 H 11.201708 3.988895 -17.518244 0
M  V30 50 H 9.851098 4.495059 -16.524244 0
M  V30 51 H 9.741733 4.590770 -18.286764 0
M  V30 52 H 8.822266 4.571106 -8.752068 0
M  V30 53 H 7.668467 2.969381 -18.409914 0
M  V30 54 H 6.234841 2.262639 -11.877946 0
M  V30 55 H 6.574163 0.897726 -13.792870 0
M  V30 56 H 10.643231 9.166579 -9.522419 0
M  V30 57 H 9.843423 8.244194 -7.309779 0
M  V30 END ATOM
M  V30 BEGIN BOND
M  V30 1 2 5 3
M  V30 2 1 7 5
M  V30 3 1 8 5
M  V30 4 1 11 6
M  V30 5 1 14 10
M  V30 6 2 15 4
M  V30 7 1 15 11
M  V30 8 1 15 13
M  V30 9 1 17 4
M  V30 10 1 18 16
M  V30 11 1 19 2
M  V30 12 1 19 6
M  V30 13 2 19 17
M  V30 14 1 20 1
M  V30 15 2 21 13
M  V30 16 1 21 16
M  V30 17 1 22 13
M  V30 18 1 23 1
M  V30 19 1 23 7
M  V30 20 1 23 10
M  V30 21 2 24 6
M  V30 22 1 25 11
M  V30 23 1 25 22
M  V30 24 1 26 2
M  V30 25 1 26 9
M  V30 26 1 26 10
M  V30 27 1 27 16
M  V30 28 1 28 17
M  V30 29 1 29 14
M  V30 30 2 29 28
M  V30 31 2 30 22
M  V30 32 1 31 12
M  V30 33 1 31 16
M  V30 34 1 31 30
M  V30 35 1 32 1
M  V30 36 1 33 1
M  V30 37 1 34 2
M  V30 38 1 35 2
M  V30 39 1 36 4
M  V30 40 1 37 7
M  V30 41 1 38 7
M  V30 42 1 39 8
M  V30 43 1 40 8
M  V30 44 1 41 8
M  V30 45 1 42 9
M  V30 46 1 43 9
M  V30 47 1 44 9
M  V30 48 1 10 45 CFG=3
M  V30 49 1 11 46 CFG=1
M  V30 50 1 47 14
M  V30 51 1 48 14
M  V30 52 1 49 20
M  V30 53 1 50 20
M  V30 54 1 51 20
M  V30 55 1 52 21
M  V30 56 1 23 53 CFG=3
M  V30 57 1 54 28
M  V30 58 1 55 29
M  V30 59 1 56 30
M  V30 60 1 31 57 CFG=1
M  V30 END BOND
M  V30 END CTAB
M  END
>  <i_epik_Tot_Q>  (1) 
-1

>  <i_epik_Tot_abs_Q>  (1) 
1

>  <i_i_glide_confnum>  (1) 
1

>  <i_i_glide_lignum>  (1) 
164

>  <i_i_glide_posenum>  (1) 
26

>  <i_i_glide_rotatable_bonds>  (1) 
4

>  <i_lp_mmshare_version>  (1) 
72125

>  <i_m_source_file_index>  (1) 
81

>  <i_f3d_flags>  (1) 
0

>  <num_sample>  (1) 
100

>  <b_lp_Chiralities_Consistent>  (1) 
1

>  <r_epik_Charging_Adjusted_Penalty>  (1) 
8.7803366933407872e-06

>  <r_epik_Ionization_Penalty>  (1) 
0.00048743314384941063

>  <r_epik_Ionization_Penalty_Charging>  (1) 
8.7803366933407872e-06

>  <r_epik_Ionization_Penalty_Neutral>  (1) 
0.00047865280715606983

>  <r_epik_State_Penalty>  (1) 
-0

>  <r_glide_ring_energy>  (1) 
0

>  <r_i_docking_score>  (1) 
-3.8763258761348425

>  <r_i_glide_ecoul>  (1) 
-0.52999983644114268

>  <r_i_glide_eff_state_penalty>  (1) 
-0

>  <r_i_glide_einternal>  (1) 
2.1689754177260419

>  <r_i_glide_emodel>  (1) 
-30.780501968372874

>  <r_i_glide_emodel_strain>  (1) 
0.17695895581928767

>  <r_i_glide_energy>  (1) 
-27.589961574685816

>  <r_i_glide_erotb>  (1) 
0.20077648214602295

>  <r_i_glide_esite>  (1) 
-0.031119217621284209

>  <r_i_glide_evdw>  (1) 
-27.059961738244674

>  <r_i_glide_gscore>  (1) 
-3.8763258761348425

>  <r_i_glide_gscore_strain>  (1) 
0

>  <r_i_glide_hbond>  (1) 
0

>  <r_i_glide_ligand_efficiency>  (1) 
-0.12504277019789814

>  <r_i_glide_ligand_efficiency_ln>  (1) 
-0.87423028018975601

>  <r_i_glide_ligand_efficiency_sa>  (1) 
-0.39280693902110037

>  <r_i_glide_lipo>  (1) 
-1.2346852030896167

>  <r_i_glide_metal>  (1) 
-0

>  <r_i_glide_rewards>  (1) 
-1.3787998751915587

>  <r_lp_Energy>  (1) 
51.588003999999998

>  <r_lp_tautomer_probability>  (1) 
1

>  <s_epik_cmdline>  (1) 
J2VwaWtfcHl0aG9uJywgJy1waHQnLCAnMS4wJywgJy1waCcsICc3LjQnLCAnLXRuJywgJzgnLCAnLW1hJywgJzUwMCcsICctaW1hZScsICc8aW5maWxlLm1hZT4nLCAnLW9tYWUnLCAnPG91dGZpbGUubWFlPic=

>  <s_epik_input>  (1) 
Tz1DKFtDSDNdKVtDSDJdW0NAQEhdKFtDSDJdW0NIM10pW0NAQEhdKFtDSDJdL1tDSF09W0NIXVwxKU4oW0NIM10pW0NIMl1DKEMyPU8pPUMxW0NIXT1DKFtDQEhdMjMpQz00QyhTMyk9W0NIXVtDQEhdKFtPSF0pQyhGKShGKVtDSF00

>  <s_glide_docking_method>  (1) 
confgen

>  <s_i_glide_gridfile>  (1) 
gpcr_drd2_6luq_protein_autoprepared_prepared

>  <s_lp_Force_Field>  (1) 
S-OPLS

>  <s_lp_Variant>  (1) 
DiffSBDD_80_num_sample_100-3

>  <s_m_source_file>  (1) 
generated__ligand_DiffSBDD_2026-05-06_prepared.sdf

>  <GenAI_Model>  (1) 
DiffSBDD

>  <Protein>  (1) 
generic_title2

$$$$
DiffSBDD_80_num_sample_100
     RDKit          3D

  0  0  0  0  0  0  0  0  0  0999 V3000
M  V30 BEGIN CTAB
M  V30 COUNTS 57 60 0 0 1
M  V30 BEGIN ATOM
M  V30 1 C 12.122925 4.178837 -17.185877 0
M  V30 2 C 9.799615 5.828716 -20.375203 0
M  V30 3 O 11.137005 1.237708 -17.891110 0
M  V30 4 C 6.258702 7.570865 -20.292228 0
M  V30 5 C 12.007437 1.412433 -18.739809 0
M  V30 6 C 8.783000 7.809837 -21.601468 0
M  V30 7 C 12.314598 2.805191 -19.308444 0
M  V30 8 C 12.830493 0.249620 -19.276875 0
M  V30 9 C 9.754006 3.518621 -21.206834 0
M  V30 10 C 10.049966 4.053979 -18.783269 0 CFG=2
M  V30 11 C 7.810804 8.962487 -21.620613 0 CFG=2
M  V30 12 O 3.434856 12.569581 -22.294625 0 CHG=-1
M  V30 13 C 5.403079 9.407424 -21.644454 0
M  V30 14 C 9.323296 5.064386 -17.872329 0
M  V30 15 C 6.448314 8.591883 -21.142337 0
M  V30 16 C 3.036414 10.264638 -21.854352 0
M  V30 17 C 7.352944 6.678932 -19.869203 0
M  V30 18 F 2.303620 10.794541 -20.870534 0
M  V30 19 C 8.592283 6.757380 -20.539476 0
M  V30 20 C 12.252142 5.628569 -16.682572 0
M  V30 21 C 4.119380 9.364985 -21.250827 0
M  V30 22 C 5.831128 10.295011 -22.641487 0
M  V30 23 C 11.621582 4.032723 -18.649047 0 CFG=1
M  V30 24 O 9.710299 7.790095 -22.410663 0
M  V30 25 S 7.529898 10.107971 -23.090682 0
M  V30 26 N 9.530194 4.428444 -20.092284 0
M  V30 27 F 2.234842 9.473149 -22.561753 0
M  V30 28 C 6.999352 5.672862 -18.806347 0
M  V30 29 C 7.822878 4.961220 -17.983285 0
M  V30 30 C 5.018411 11.205411 -23.217559 0
M  V30 31 C 3.539703 11.391225 -22.854840 0 CFG=2
M  V30 32 H 11.478839 3.609612 -16.517121 0
M  V30 33 H 13.105893 3.717910 -17.079254 0
M  V30 34 H 10.340897 5.810927 -21.320798 0
M  V30 35 H 10.529790 6.307259 -19.725352 0
M  V30 36 H 5.262741 7.356545 -19.941353 0
M  V30 37 H 13.393252 2.943098 -19.234757 0
M  V30 38 H 12.114978 2.774143 -20.374844 0
M  V30 39 H 12.304354 -0.230738 -20.101377 0
M  V30 40 H 13.000694 -0.487471 -18.492048 0
M  V30 41 H 13.797870 0.597252 -19.639107 0
M  V30 42 H 9.581523 2.485041 -20.905246 0
M  V30 43 H 10.759966 3.610041 -21.612993 0
M  V30 44 H 9.056977 3.750732 -22.012754 0
M  V30 45 H 9.653303 3.068474 -18.544136 0
M  V30 46 H 8.189803 9.648687 -20.869111 0
M  V30 47 H 9.531481 4.801853 -16.835459 0
M  V30 48 H 9.633987 6.106285 -17.924154 0
M  V30 49 H 13.295352 5.883661 -16.494873 0
M  V30 50 H 11.710111 5.764410 -15.746280 0
M  V30 51 H 11.864901 6.356928 -17.394185 0
M  V30 52 H 3.801997 8.677212 -20.484834 0
M  V30 53 H 12.030263 4.886951 -19.186657 0
M  V30 54 H 5.943119 5.489525 -18.672619 0
M  V30 55 H 7.365002 4.274254 -17.286688 0
M  V30 56 H 5.411316 11.860043 -23.976682 0
M  V30 57 H 3.034884 11.203565 -23.803369 0
M  V30 END ATOM
M  V30 BEGIN BOND
M  V30 1 2 5 3
M  V30 2 1 7 5
M  V30 3 1 8 5
M  V30 4 1 11 6
M  V30 5 1 14 10
M  V30 6 2 15 4
M  V30 7 1 15 11
M  V30 8 1 15 13
M  V30 9 1 17 4
M  V30 10 1 18 16
M  V30 11 1 19 2
M  V30 12 1 19 6
M  V30 13 2 19 17
M  V30 14 1 20 1
M  V30 15 2 21 13
M  V30 16 1 21 16
M  V30 17 1 22 13
M  V30 18 1 23 1
M  V30 19 1 23 7
M  V30 20 1 23 10
M  V30 21 2 24 6
M  V30 22 1 25 11
M  V30 23 1 25 22
M  V30 24 1 26 2
M  V30 25 1 26 9
M  V30 26 1 26 10
M  V30 27 1 27 16
M  V30 28 1 28 17
M  V30 29 1 29 14
M  V30 30 2 29 28
M  V30 31 2 30 22
M  V30 32 1 31 12
M  V30 33 1 31 16
M  V30 34 1 31 30
M  V30 35 1 32 1
M  V30 36 1 33 1
M  V30 37 1 34 2
M  V30 38 1 35 2
M  V30 39 1 36 4
M  V30 40 1 37 7
M  V30 41 1 38 7
M  V30 42 1 39 8
M  V30 43 1 40 8
M  V30 44 1 41 8
M  V30 45 1 42 9
M  V30 46 1 43 9
M  V30 47 1 44 9
M  V30 48 1 10 45 CFG=1
M  V30 49 1 11 46 CFG=1
M  V30 50 1 47 14
M  V30 51 1 48 14
M  V30 52 1 49 20
M  V30 53 1 50 20
M  V30 54 1 51 20
M  V30 55 1 52 21
M  V30 56 1 23 53 CFG=3
M  V30 57 1 54 28
M  V30 58 1 55 29
M  V30 59 1 56 30
M  V30 60 1 31 57 CFG=3
M  V30 END BOND
M  V30 END CTAB
M  END
>  <i_epik_Tot_Q>  (1) 
-1

>  <i_epik_Tot_abs_Q>  (1) 
1

>  <i_i_glide_confnum>  (1) 
7

>  <i_i_glide_lignum>  (1) 
165

>  <i_i_glide_posenum>  (1) 
66

>  <i_i_glide_rotatable_bonds>  (1) 
4

>  <i_lp_mmshare_version>  (1) 
72125

>  <i_m_source_file_index>  (1) 
81

>  <i_f3d_flags>  (1) 
0

>  <num_sample>  (1) 
100

>  <b_lp_Chiralities_Consistent>  (1) 
1

>  <r_epik_Charging_Adjusted_Penalty>  (1) 
8.7803366933407872e-06

>  <r_epik_Ionization_Penalty>  (1) 
0.00048743314384941063

>  <r_epik_Ionization_Penalty_Charging>  (1) 
8.7803366933407872e-06

>  <r_epik_Ionization_Penalty_Neutral>  (1) 
0.00047865280715606983

>  <r_epik_State_Penalty>  (1) 
-0

>  <r_glide_ring_energy>  (1) 
0

>  <r_i_docking_score>  (1) 
-3.8652529609397943

>  <r_i_glide_ecoul>  (1) 
-1.8808937216935937

>  <r_i_glide_eff_state_penalty>  (1) 
-0

>  <r_i_glide_einternal>  (1) 
5.6704899546336485

>  <r_i_glide_emodel>  (1) 
-33.925623134667568

>  <r_i_glide_emodel_strain>  (1) 
1.8712333513165902

>  <r_i_glide_energy>  (1) 
-31.315703084533727

>  <r_i_glide_erotb>  (1) 
0.20077648214602295

>  <r_i_glide_esite>  (1) 
0

>  <r_i_glide_evdw>  (1) 
-29.434809362840134

>  <r_i_glide_gscore>  (1) 
-3.8652529609397943

>  <r_i_glide_gscore_strain>  (1) 
0

>  <r_i_glide_hbond>  (1) 
0

>  <r_i_glide_ligand_efficiency>  (1) 
-0.12468557938515465

>  <r_i_glide_ligand_efficiency_ln>  (1) 
-0.87173299846917562

>  <r_i_glide_ligand_efficiency_sa>  (1) 
-0.391684866712736

>  <r_i_glide_lipo>  (1) 
-1.7223237421575035

>  <r_i_glide_metal>  (1) 
-0

>  <r_i_glide_rewards>  (1) 
-0.58983117453226797

>  <r_lp_Energy>  (1) 
61.855367999999999

>  <r_lp_tautomer_probability>  (1) 
1

>  <s_epik_cmdline>  (1) 
J2VwaWtfcHl0aG9uJywgJy1waHQnLCAnMS4wJywgJy1waCcsICc3LjQnLCAnLXRuJywgJzgnLCAnLW1hJywgJzUwMCcsICctaW1hZScsICc8aW5maWxlLm1hZT4nLCAnLW9tYWUnLCAnPG91dGZpbGUubWFlPic=

>  <s_epik_input>  (1) 
Tz1DKFtDSDNdKVtDSDJdW0NAQEhdKFtDSDJdW0NIM10pW0NAQEhdKFtDSDJdL1tDSF09W0NIXVwxKU4oW0NIM10pW0NIMl1DKEMyPU8pPUMxW0NIXT1DKFtDQEhdMjMpQz00QyhTMyk9W0NIXVtDQEhdKFtPSF0pQyhGKShGKVtDSF00

>  <s_glide_docking_method>  (1) 
confgen

>  <s_i_glide_gridfile>  (1) 
gpcr_drd2_6luq_protein_autoprepared_prepared

>  <s_lp_Force_Field>  (1) 
S-OPLS

>  <s_lp_Variant>  (1) 
DiffSBDD_80_num_sample_100-4

>  <s_m_source_file>  (1) 
generated__ligand_DiffSBDD_2026-05-06_prepared.sdf

>  <GenAI_Model>  (1) 
DiffSBDD

>  <Protein>  (1) 
generic_title2

$$$$
DiffSBDD_56_num_sample_100
     RDKit          3D

  0  0  0  0  0  0  0  0  0  0999 V3000
M  V30 BEGIN CTAB
M  V30 COUNTS 70 76 0 0 1
M  V30 BEGIN ATOM
M  V30 1 O 11.732781 7.802883 -7.219755 0
M  V30 2 C 9.162261 1.746139 -18.022271 0
M  V30 3 C 12.591523 3.091722 -18.818462 0
M  V30 4 C 10.351372 4.410512 -19.008793 0
M  V30 5 C 8.147672 5.594398 -10.989847 0 CFG=2
M  V30 6 C 8.898599 4.569589 -16.811930 0
M  V30 7 F 7.950296 4.069908 -18.989212 0
M  V30 8 C 9.679488 6.604091 -7.634649 0
M  V30 9 C 7.076827 4.585675 -15.080256 0 CFG=1
M  V30 10 C 10.820075 7.268321 -8.116177 0
M  V30 11 C 8.008234 1.630954 -17.412813 0
M  V30 12 C 8.651160 5.643711 -13.563216 0 CFG=1
M  V30 13 C 6.259242 4.219649 -13.877994 0
M  V30 14 N 9.157076 5.709866 -12.150282 0 CFG=1 CHG=1
M  V30 15 C 10.725779 0.877953 -19.752698 0
M  V30 16 C 8.966176 4.655471 -18.350496 0 CFG=2
M  V30 17 C 10.117178 6.765292 -10.394949 0
M  V30 18 C 12.703100 8.745697 -7.685123 0
M  V30 19 C 12.245336 7.955031 -9.987910 0
M  V30 20 C 10.260388 1.913616 -18.724442 0
M  V30 21 C 9.432251 6.514749 -6.146997 0
M  V30 22 C 10.253859 6.750942 -11.871456 0
M  V30 23 C 9.852221 5.368520 -14.527952 0
M  V30 24 C 13.048635 8.569419 -9.145208 0
M  V30 25 C 9.770221 5.315960 -16.074981 0
M  V30 26 C 11.048806 7.344213 -9.517370 0
M  V30 27 C 12.055479 3.197181 -17.420570 0
M  V30 28 C 7.755172 4.442063 -13.759496 0 CFG=1
M  V30 29 O 9.756084 -0.114900 -20.042299 0
M  V30 30 C 7.806189 3.844444 -16.126071 0
M  V30 31 C 9.034801 6.141810 -9.935754 0
M  V30 32 C 7.734841 4.169323 -10.694783 0
M  V30 33 C 7.393324 2.569077 -16.448999 0
M  V30 34 C 8.777004 6.024143 -8.549261 0
M  V30 35 C 11.087141 3.142098 -18.589501 0
M  V30 36 H 13.064226 2.150594 -19.092754 0
M  V30 37 H 13.071172 3.977310 -19.233772 0
M  V30 38 H 10.227535 4.390734 -20.092217 0
M  V30 39 H 10.999392 5.264571 -18.806458 0
M  V30 40 H 7.291511 6.257475 -11.113358 0
M  V30 41 H 6.837279 5.584350 -15.445236 0
M  V30 42 H 7.458946 0.715225 -17.573691 0
M  V30 43 H 8.136400 6.572882 -13.812754 0
M  V30 44 H 5.886679 3.199704 -13.810915 0
M  V30 45 H 5.608656 4.980023 -13.449727 0
M  V30 46 H 11.633070 0.383205 -19.405761 0
M  V30 47 H 10.967639 1.391880 -20.683625 0
M  V30 48 H 8.739912 5.700719 -18.557370 0
M  V30 49 H 12.234828 9.720909 -7.530953 0
M  V30 50 H 13.606225 8.734175 -7.091148 0
M  V30 51 H 12.498040 7.862943 -11.031823 0
M  V30 52 H 8.472814 6.053287 -5.921871 0
M  V30 53 H 10.221486 5.944360 -5.656730 0
M  V30 54 H 9.433078 7.514893 -5.715510 0
M  V30 55 H 11.232764 6.403363 -12.200291 0
M  V30 56 H 10.015547 7.725838 -12.299374 0
M  V30 57 H 10.234776 4.400626 -14.242745 0
M  V30 58 H 10.699296 6.010524 -14.313218 0
M  V30 59 H 13.976502 8.969289 -9.489780 0
M  V30 60 H 10.518921 5.895105 -16.595585 0
M  V30 61 H 12.189976 4.146534 -16.908884 0
M  V30 62 H 12.140490 2.315901 -16.787266 0
M  V30 63 H 8.273456 3.504770 -13.553749 0
M  V30 64 H 8.983415 0.313135 -20.382674 0
M  V30 65 H 7.234133 4.105493 -9.729746 0
M  V30 66 H 7.035193 3.767746 -11.420900 0
M  V30 67 H 8.636216 3.558573 -10.692441 0
M  V30 68 H 6.544021 2.189597 -15.901363 0
M  V30 69 H 7.892054 5.517189 -8.195206 0
M  V30 70 H 9.665037 4.843565 -12.052701 0
M  V30 END ATOM
M  V30 BEGIN BOND
M  V30 1 1 10 1
M  V30 2 1 10 8
M  V30 3 2 11 2
M  V30 4 1 13 9
M  V30 5 1 14 5
M  V30 6 1 14 12
M  V30 7 1 16 4
M  V30 8 1 16 6
M  V30 9 1 16 7
M  V30 10 1 18 1
M  V30 11 2 20 2
M  V30 12 1 20 15
M  V30 13 1 21 8
M  V30 14 1 22 14
M  V30 15 1 22 17
M  V30 16 1 23 12
M  V30 17 1 24 18
M  V30 18 2 24 19
M  V30 19 2 25 6
M  V30 20 1 25 23
M  V30 21 2 26 10
M  V30 22 1 26 17
M  V30 23 1 26 19
M  V30 24 1 27 3
M  V30 25 1 28 9
M  V30 26 1 28 12
M  V30 27 1 28 13
M  V30 28 1 29 15
M  V30 29 1 30 6
M  V30 30 1 30 9
M  V30 31 1 31 5
M  V30 32 2 31 17
M  V30 33 1 32 5
M  V30 34 1 33 11
M  V30 35 2 33 30
M  V30 36 2 34 8
M  V30 37 1 34 31
M  V30 38 1 35 3
M  V30 39 1 35 4
M  V30 40 1 35 20
M  V30 41 1 35 27
M  V30 42 1 36 3
M  V30 43 1 37 3
M  V30 44 1 38 4
M  V30 45 1 39 4
M  V30 46 1 5 40 CFG=3
M  V30 47 1 9 41 CFG=3
M  V30 48 1 42 11
M  V30 49 1 12 43 CFG=3
M  V30 50 1 44 13
M  V30 51 1 45 13
M  V30 52 1 46 15
M  V30 53 1 47 15
M  V30 54 1 16 48 CFG=1
M  V30 55 1 49 18
M  V30 56 1 50 18
M  V30 57 1 51 19
M  V30 58 1 52 21
M  V30 59 1 53 21
M  V30 60 1 54 21
M  V30 61 1 55 22
M  V30 62 1 56 22
M  V30 63 1 57 23
M  V30 64 1 58 23
M  V30 65 1 59 24
M  V30 66 1 60 25
M  V30 67 1 61 27
M  V30 68 1 62 27
M  V30 69 1 28 63 CFG=3
M  V30 70 1 64 29
M  V30 71 1 65 32
M  V30 72 1 66 32
M  V30 73 1 67 32
M  V30 74 1 68 33
M  V30 75 1 69 34
M  V30 76 1 14 70 CFG=1
M  V30 END BOND
M  V30 END CTAB
M  END
>  <i_epik_Tot_Q>  (1) 
1

>  <i_epik_Tot_abs_Q>  (1) 
1

>  <i_i_glide_confnum>  (1) 
4

>  <i_i_glide_lignum>  (1) 
112

>  <i_i_glide_posenum>  (1) 
334

>  <i_i_glide_rotatable_bonds>  (1) 
3

>  <i_lp_mmshare_version>  (1) 
72125

>  <i_m_source_file_index>  (1) 
57

>  <i_f3d_flags>  (1) 
0

>  <num_sample>  (1) 
100

>  <b_lp_Chiralities_Consistent>  (1) 
1

>  <r_epik_Charging_Adjusted_Penalty>  (1) 
0.14231297848205576

>  <r_epik_Ionization_Penalty>  (1) 
0.071157794031890806

>  <r_epik_Ionization_Penalty_Charging>  (1) 
0.071156489241027923

>  <r_epik_Ionization_Penalty_Neutral>  (1) 
1.3047908628845687e-06

>  <r_epik_State_Penalty>  (1) 
0.071156489241027826

>  <r_glide_ring_energy>  (1) 
0

>  <r_i_docking_score>  (1) 
-3.8480489887500173

>  <r_i_glide_ecoul>  (1) 
-3.6982213879253614

>  <r_i_glide_eff_state_penalty>  (1) 
0.071156489241027826

>  <r_i_glide_einternal>  (1) 
1.5013373045109741

>  <r_i_glide_emodel>  (1) 
-22.949120386682726

>  <r_i_glide_emodel_strain>  (1) 
2.4993168316670733

>  <r_i_glide_energy>  (1) 
-20.748917271823505

>  <r_i_glide_erotb>  (1) 
0.18105195314905365

>  <r_i_glide_esite>  (1) 
0

>  <r_i_glide_evdw>  (1) 
-17.050695883898143

>  <r_i_glide_gscore>  (1) 
-3.9192054779910452

>  <r_i_glide_gscore_strain>  (1) 
0

>  <r_i_glide_hbond>  (1) 
0

>  <r_i_glide_ligand_efficiency>  (1) 
-0.10994425682142907

>  <r_i_glide_ligand_efficiency_ln>  (1) 
-0.84473215587655059

>  <r_i_glide_ligand_efficiency_sa>  (1) 
-0.35963495448729871

>  <r_i_glide_lipo>  (1) 
-1.5837294473586399

>  <r_i_glide_metal>  (1) 
-0

>  <r_i_glide_rewards>  (1) 
-1.1092599813977475

>  <r_lp_Energy>  (1) 
55.302659999999996

>  <s_epik_cmdline>  (1) 
J2VwaWtfcHl0aG9uJywgJy1waHQnLCAnMS4wJywgJy1waCcsICc3LjQnLCAnLXRuJywgJzgnLCAnLW1hJywgJzUwMCcsICctaW1hZScsICc8aW5maWxlLm1hZT4nLCAnLW9tYWUnLCAnPG91dGZpbGUubWFlPic=

>  <s_epik_input>  (1) 
TzFbQ0gyXVtDSF09W0NIXWMoYzEyKWMzYyhbY0hdYzJbQ0gzXSlbQ0BIXShbQ0gzXSlOKFtDSDJdMylbQ0BASF0oW0NIMl1bQ0hdNClbQ0BASF0oW0NIMl01KVtDQEhdNUMoXEM9NFtDQEhdKEYpW0NIMl1DNjdbQ0gyXVtDSDJdNyk9W0NIXVxbQ0hdPUM9QzZbQ0gyXVtPSF0=

>  <s_glide_docking_method>  (1) 
confgen

>  <s_i_glide_gridfile>  (1) 
gpcr_drd2_6luq_protein_autoprepared_prepared

>  <s_lp_Force_Field>  (1) 
S-OPLS

>  <s_lp_Variant>  (1) 
DiffSBDD_56_num_sample_100-1

>  <s_m_source_file>  (1) 
generated__ligand_DiffSBDD_2026-05-06_prepared.sdf

>  <GenAI_Model>  (1) 
DiffSBDD

>  <Protein>  (1) 
generic_title2

$$$$
DiffSBDD_47_num_sample_100
     RDKit          3D

  0  0  0  0  0  0  0  0  0  0999 V3000
M  V30 BEGIN CTAB
M  V30 COUNTS 60 66 0 0 1
M  V30 BEGIN ATOM
M  V30 1 C 10.596634 7.116959 -8.430099 0 CFG=1
M  V30 2 N 7.476953 4.569302 -10.182635 0
M  V30 3 N 4.574125 -1.029476 -16.755888 0
M  V30 4 C 6.111122 7.844580 -15.228066 0
M  V30 5 C 7.495111 2.381482 -16.347633 0
M  V30 6 C 9.451582 6.234391 -10.474704 0
M  V30 7 C 10.385701 7.038155 -9.899377 0
M  V30 8 C 4.640647 -1.044241 -18.089444 0
M  V30 9 N 5.758665 -0.584828 -18.616636 0
M  V30 10 N 7.514791 4.693514 -15.466596 0
M  V30 11 N 7.353038 5.429830 -12.363373 0
M  V30 12 N 8.131542 1.059914 -16.351836 0
M  V30 13 N 8.665161 5.432624 -12.562574 0
M  V30 14 C 5.844126 -0.470588 -16.460161 0
M  V30 15 C 6.555570 -0.209966 -17.578821 0
M  V30 16 C 8.723610 5.366236 -8.322380 0
M  V30 17 C 8.221936 3.420276 -15.485729 0
M  V30 18 N 6.325152 -0.216699 -15.196825 0
M  V30 19 C 6.777171 4.706607 -11.364330 0
M  V30 20 C 6.375925 4.730024 -14.549770 0
M  V30 21 O 5.668917 4.190979 -11.501865 0
M  V30 22 O 5.474021 6.641265 -13.183379 0
M  V30 23 F 11.196680 7.770610 -10.689547 0
M  V30 24 C 7.915802 0.356351 -17.668772 0 CFG=2
M  V30 25 C 8.968515 -0.731603 -17.928468 0
M  V30 26 C 7.719442 0.272307 -15.112684 0
M  V30 27 C 9.424147 6.174613 -11.892843 0
M  V30 28 C 6.591770 5.822284 -13.516991 0 CFG=1
M  V30 29 C 6.540543 7.294026 -13.881465 0 CFG=1
M  V30 30 C 9.745844 6.175458 -7.602990 0 CFG=2
M  V30 31 C 8.557761 5.374651 -9.662357 0
M  V30 32 C 10.916419 8.445649 -7.777829 0
M  V30 33 C 9.626606 7.690525 -7.484466 0 CFG=1
M  V30 34 H 7.026160 3.991039 -9.489641 0
M  V30 35 H 6.880711 8.507454 -15.618862 0
M  V30 36 H 5.935480 7.053068 -15.953894 0
M  V30 37 H 5.186852 8.414399 -15.123372 0
M  V30 38 H 6.456889 2.291297 -16.031726 0
M  V30 39 H 7.459370 2.784014 -17.359933 0
M  V30 40 H 3.826663 -1.411106 -18.698768 0
M  V30 41 H 8.168703 5.411327 -15.169826 0
M  V30 42 H 5.980069 -0.524324 -19.599686 0
M  V30 43 H 8.069156 4.763386 -7.711154 0
M  V30 44 H 9.211728 3.582529 -15.911403 0
M  V30 45 H 8.372400 3.062276 -14.466686 0
M  V30 46 H 5.835198 -0.539709 -14.371419 0
M  V30 47 H 6.208415 3.768352 -14.061704 0
M  V30 48 H 5.465365 4.969275 -15.096783 0
M  V30 49 H 7.971004 1.067869 -18.493580 0
M  V30 50 H 8.791821 -1.230890 -18.881174 0
M  V30 51 H 9.971500 -0.305746 -17.963676 0
M  V30 52 H 8.958860 -1.491946 -17.146419 0
M  V30 53 H 8.373309 -0.592294 -14.991698 0
M  V30 54 H 7.838245 0.877414 -14.213268 0
M  V30 55 H 10.154096 6.809542 -12.391253 0
M  V30 56 H 7.113240 7.974066 -13.256050 0
M  V30 57 H 10.253182 5.644910 -6.802293 0
M  V30 58 H 10.917034 9.306364 -8.440403 0
M  V30 59 H 11.668561 8.457037 -6.991608 0
M  V30 60 H 8.718043 8.130649 -7.888214 0
M  V30 END ATOM
M  V30 BEGIN BOND
M  V30 1 1 7 1
M  V30 2 2 7 6
M  V30 3 2 8 3
M  V30 4 1 9 8
M  V30 5 1 12 5
M  V30 6 1 13 11
M  V30 7 1 14 3
M  V30 8 1 15 9
M  V30 9 2 15 14
M  V30 10 1 17 5
M  V30 11 1 17 10
M  V30 12 1 18 14
M  V30 13 1 19 2
M  V30 14 1 19 11
M  V30 15 1 20 10
M  V30 16 2 21 19
M  V30 17 1 23 7
M  V30 18 1 24 12
M  V30 19 1 24 15
M  V30 20 1 25 24
M  V30 21 1 26 12
M  V30 22 1 26 18
M  V30 23 1 27 6
M  V30 24 2 27 13
M  V30 25 1 28 11
M  V30 26 1 28 20 CFG=3
M  V30 27 1 28 22
M  V30 28 1 29 4
M  V30 29 1 29 22
M  V30 30 1 29 28
M  V30 31 1 30 1
M  V30 32 1 30 16
M  V30 33 1 31 2
M  V30 34 1 31 6
M  V30 35 2 31 16
M  V30 36 1 1 32 CFG=1
M  V30 37 1 33 1
M  V30 38 1 33 30
M  V30 39 1 33 32
M  V30 40 1 34 2
M  V30 41 1 35 4
M  V30 42 1 36 4
M  V30 43 1 37 4
M  V30 44 1 38 5
M  V30 45 1 39 5
M  V30 46 1 40 8
M  V30 47 1 41 10
M  V30 48 1 42 9
M  V30 49 1 43 16
M  V30 50 1 44 17
M  V30 51 1 45 17
M  V30 52 1 46 18
M  V30 53 1 47 20
M  V30 54 1 48 20
M  V30 55 1 24 49 CFG=3
M  V30 56 1 50 25
M  V30 57 1 51 25
M  V30 58 1 52 25
M  V30 59 1 53 26
M  V30 60 1 54 26
M  V30 61 1 55 27
M  V30 62 1 29 56 CFG=1
M  V30 63 1 30 57 CFG=1
M  V30 64 1 58 32
M  V30 65 1 59 32
M  V30 66 1 33 60 CFG=3
M  V30 END BOND
M  V30 END CTAB
M  END
>  <i_epik_Tot_Q>  (1) 
0

>  <i_epik_Tot_abs_Q>  (1) 
0

>  <i_i_glide_confnum>  (1) 
81

>  <i_i_glide_lignum>  (1) 
88

>  <i_i_glide_posenum>  (1) 
375

>  <i_i_glide_rotatable_bonds>  (1) 
6

>  <i_lp_mmshare_version>  (1) 
72125

>  <i_m_source_file_index>  (1) 
48

>  <i_f3d_flags>  (1) 
2

>  <num_sample>  (1) 
100

>  <b_lp_Chiralities_Consistent>  (1) 
0

>  <r_epik_Charging_Adjusted_Penalty>  (1) 
0.98731157914139778

>  <r_epik_Ionization_Penalty>  (1) 
1.0089239767468481

>  <r_epik_Ionization_Penalty_Charging>  (1) 
0.0054720513801765243

>  <r_epik_Ionization_Penalty_Neutral>  (1) 
1.0034519253666716

>  <r_epik_State_Penalty>  (1) 
0.9818395277612213

>  <r_glide_ring_energy>  (1) 
0

>  <r_i_docking_score>  (1) 
-3.8437136089678292

>  <r_i_glide_ecoul>  (1) 
-2.3903104650949927

>  <r_i_glide_eff_state_penalty>  (1) 
0.9818395277612213

>  <r_i_glide_einternal>  (1) 
7.3989108756934403

>  <r_i_glide_emodel>  (1) 
-50.170245059252636

>  <r_i_glide_emodel_strain>  (1) 
0.66320016555661709

>  <r_i_glide_energy>  (1) 
-44.023722165818398

>  <r_i_glide_erotb>  (1) 
0.58326009776632259

>  <r_i_glide_esite>  (1) 
-0.089851634485543175

>  <r_i_glide_evdw>  (1) 
-41.633411700723407

>  <r_i_glide_gscore>  (1) 
-4.8255531367290505

>  <r_i_glide_gscore_strain>  (1) 
0

>  <r_i_glide_hbond>  (1) 
-0.015563484351278611

>  <r_i_glide_ligand_efficiency>  (1) 
-0.11647616996872209

>  <r_i_glide_ligand_efficiency_ln>  (1) 
-0.85482200495049321

>  <r_i_glide_ligand_efficiency_sa>  (1) 
-0.37360131380110506

>  <r_i_glide_lipo>  (1) 
-1.093153048282244

>  <r_i_glide_metal>  (1) 
-0

>  <r_i_glide_rewards>  (1) 
-1.7700279125758884

>  <r_lp_Energy>  (1) 
73.522155999999995

>  <r_lp_tautomer_probability>  (1) 
0.94542902837213583

>  <s_epik_Chemistry_Notes>  (1) 
This compound has an imine and may undergo hydrolysis. This compound contains an acetal/aminal-like group ( X-CH(R)-Y where X, Y are N, S, or O) that may be acid/base labile, releasing an aldehyde.

>  <s_epik_cmdline>  (1) 
J2VwaWtfcHl0aG9uJywgJy1waHQnLCAnMS4wJywgJy1waCcsICc3LjQnLCAnLXRuJywgJzgnLCAnLW1hJywgJzUwMCcsICctaW1hZScsICc8aW5maWxlLm1hZT4nLCAnLW9tYWUnLCAnPG91dGZpbGUubWFlPic=

>  <s_epik_input>  (1) 
W0NIMl0xW0NAQEhdMltDQEhdKEMxMjMpW0NIXT1DNEMoPUMzRilbQ0hdPU5OKEMoPU8pW05IXTQpW0NAXTUoT1tDQEBIXTVbQ0gzXSlbQ0gyXVtOSF1bQ0gyXVtDSDJdTihbQ0gyXVtOSF02KVtDQEBIXShbQ0gzXSlbQ0BIXShDNjcpTj1bQ0hdTj03

>  <s_glide_docking_method>  (1) 
confgen

>  <s_i_glide_gridfile>  (1) 
gpcr_drd2_6luq_protein_autoprepared_prepared

>  <s_lp_Force_Field>  (1) 
S-OPLS

>  <s_lp_Variant>  (1) 
DiffSBDD_47_num_sample_100-2

>  <s_m_source_file>  (1) 
generated__ligand_DiffSBDD_2026-05-06_prepared.sdf

>  <GenAI_Model>  (1) 
DiffSBDD

>  <Protein>  (1) 
generic_title2

$$$$
DiffSBDD_28_num_sample_100
     RDKit          3D

  0  0  0  0  0  0  0  0  0  0999 V3000
M  V30 BEGIN CTAB
M  V30 COUNTS 42 43 0 0 1
M  V30 BEGIN ATOM
M  V30 1 C 12.917058 8.169119 -3.143970 0
M  V30 2 C 8.367810 5.011050 -12.396325 0
M  V30 3 C 12.234976 8.719072 -4.397719 0
M  V30 4 N 10.342831 6.856132 -7.247682 0
M  V30 5 C 11.192448 6.335882 -2.979200 0
M  V30 6 C 10.105451 7.058128 -8.505361 0
M  V30 7 C 10.970014 6.569302 -4.471006 0
M  V30 8 O 10.619214 8.168439 -10.553955 0
M  V30 9 C 9.448363 5.095922 -10.121826 0
M  V30 10 C 6.996897 4.571894 -10.359872 0
M  V30 11 C 9.034868 6.272636 -9.241507 0
M  V30 12 C 8.117396 6.514437 -12.606559 0
M  V30 13 C 11.806434 8.745529 -7.379106 0
M  V30 14 N 11.720075 8.969221 -8.698788 0 CHG=-1
M  V30 15 N 8.347242 4.569159 -10.975025 0 CFG=1 CHG=1
M  V30 16 C 11.913680 7.474871 -2.245623 0
M  V30 17 C 10.856073 8.137560 -9.348029 0
M  V30 18 C 11.207645 7.766773 -6.598310 0
M  V30 19 C 11.434812 7.642826 -5.144929 0
M  V30 20 H 13.676421 7.440317 -3.430779 0
M  V30 21 H 13.423177 8.967820 -2.601183 0
M  V30 22 H 9.329554 4.738283 -12.833040 0
M  V30 23 H 7.620421 4.437852 -12.946929 0
M  V30 24 H 13.034941 9.154713 -4.986417 0
M  V30 25 H 11.560389 9.534739 -4.136978 0
M  V30 26 H 10.239223 6.128433 -2.493072 0
M  V30 27 H 11.813542 5.448623 -2.883141 0
M  V30 28 H 10.419951 5.804026 -4.994631 0
M  V30 29 H 10.234846 5.424441 -10.794859 0
M  V30 30 H 9.834709 4.284611 -9.503976 0
M  V30 31 H 6.582866 5.578032 -10.288759 0
M  V30 32 H 6.305327 3.967285 -10.945533 0
M  V30 33 H 7.034736 4.152728 -9.354700 0
M  V30 34 H 8.245506 6.014156 -8.534769 0
M  V30 35 H 8.634828 6.969417 -9.954307 0
M  V30 36 H 8.024705 6.741182 -13.668312 0
M  V30 37 H 7.202891 6.854882 -12.121230 0
M  V30 38 H 8.942667 7.116060 -12.228236 0
M  V30 39 H 12.477918 9.446219 -6.855369 0
M  V30 40 H 12.463530 7.061704 -1.406797 0
M  V30 41 H 11.209132 8.203981 -1.846340 0
M  V30 42 H 8.577448 3.587711 -11.047675 0
M  V30 END ATOM
M  V30 BEGIN BOND
M  V30 1 1 3 1
M  V30 2 2 6 4
M  V30 3 1 7 5
M  V30 4 1 11 6
M  V30 5 1 11 9
M  V30 6 1 12 2
M  V30 7 1 14 13
M  V30 8 1 15 2
M  V30 9 1 15 9
M  V30 10 1 15 10
M  V30 11 1 16 1
M  V30 12 1 16 5
M  V30 13 1 17 6
M  V30 14 2 17 8
M  V30 15 1 17 14
M  V30 16 1 18 4
M  V30 17 2 18 13
M  V30 18 1 19 3
M  V30 19 2 19 7
M  V30 20 1 19 18
M  V30 21 1 20 1
M  V30 22 1 21 1
M  V30 23 1 22 2
M  V30 24 1 23 2
M  V30 25 1 24 3
M  V30 26 1 25 3
M  V30 27 1 26 5
M  V30 28 1 27 5
M  V30 29 1 28 7
M  V30 30 1 29 9
M  V30 31 1 30 9
M  V30 32 1 31 10
M  V30 33 1 32 10
M  V30 34 1 33 10
M  V30 35 1 34 11
M  V30 36 1 35 11
M  V30 37 1 36 12
M  V30 38 1 37 12
M  V30 39 1 38 12
M  V30 40 1 39 13
M  V30 41 1 40 16
M  V30 42 1 41 16
M  V30 43 1 15 42 CFG=3
M  V30 END BOND
M  V30 END CTAB
M  END
>  <i_epik_Tot_Q>  (1) 
0

>  <i_epik_Tot_abs_Q>  (1) 
2

>  <i_i_glide_confnum>  (1) 
54

>  <i_i_glide_lignum>  (1) 
49

>  <i_i_glide_posenum>  (1) 
222

>  <i_i_glide_rotatable_bonds>  (1) 
5

>  <i_lp_mmshare_version>  (1) 
72125

>  <i_m_source_file_index>  (1) 
29

>  <i_f3d_flags>  (1) 
0

>  <num_sample>  (1) 
100

>  <b_lp_Chiralities_Consistent>  (1) 
1

>  <r_epik_Charging_Adjusted_Penalty>  (1) 
1.2889852773217638

>  <r_epik_Ionization_Penalty>  (1) 
1.2889869126975093

>  <r_epik_Ionization_Penalty_Charging>  (1) 
0.026956894772998535

>  <r_epik_Ionization_Penalty_Neutral>  (1) 
1.2620300179245107

>  <r_epik_State_Penalty>  (1) 
1.2620283825487653

>  <r_glide_ring_energy>  (1) 
0.00030344837723431068

>  <r_i_docking_score>  (1) 
-3.8431797447748028

>  <r_i_glide_ecoul>  (1) 
-3.9244085225640024

>  <r_i_glide_eff_state_penalty>  (1) 
1.2620283825487653

>  <r_i_glide_einternal>  (1) 
5.4606634921415944

>  <r_i_glide_emodel>  (1) 
-35.65534157082871

>  <r_i_glide_emodel_strain>  (1) 
0.64798959519894339

>  <r_i_glide_energy>  (1) 
-28.029571567164062

>  <r_i_glide_erotb>  (1) 
1.0375715866235848

>  <r_i_glide_esite>  (1) 
0

>  <r_i_glide_evdw>  (1) 
-24.105163044600062

>  <r_i_glide_gscore>  (1) 
-5.1052081273235679

>  <r_i_glide_gscore_strain>  (1) 
0

>  <r_i_glide_hbond>  (1) 
0

>  <r_i_glide_ligand_efficiency>  (1) 
-0.20227261814604225

>  <r_i_glide_ligand_efficiency_ln>  (1) 
-0.97432860923277964

>  <r_i_glide_ligand_efficiency_sa>  (1) 
-0.53974458775220358

>  <r_i_glide_lipo>  (1) 
-2.1702678495450214

>  <r_i_glide_metal>  (1) 
-0

>  <r_i_glide_rewards>  (1) 
-2.1785924337875273

>  <r_lp_Energy>  (1) 
33.608792999999999

>  <s_epik_cmdline>  (1) 
J2VwaWtfcHl0aG9uJywgJy1waHQnLCAnMS4wJywgJy1waCcsICc3LjQnLCAnLXRuJywgJzgnLCAnLW1hJywgJzUwMCcsICctaW1hZScsICc8aW5maWxlLm1hZT4nLCAnLW9tYWUnLCAnPG91dGZpbGUubWFlPic=

>  <s_epik_input>  (1) 
W0NIMl0xW0NIMl1bQ0gyXVtDSDJdW0NIXT1DMWMoW2NIXVtuSF1jMj1PKW5jMltDSDJdW0NIMl1OKFtDSDNdKVtDSDJdW0NIM10=

>  <s_glide_docking_method>  (1) 
confgen

>  <s_i_glide_gridfile>  (1) 
gpcr_drd2_6luq_protein_autoprepared_prepared

>  <s_lp_Force_Field>  (1) 
S-OPLS

>  <s_lp_Variant>  (1) 
DiffSBDD_28_num_sample_100-3

>  <s_m_source_file>  (1) 
generated__ligand_DiffSBDD_2026-05-06_prepared.sdf

>  <GenAI_Model>  (1) 
DiffSBDD

>  <Protein>  (1) 
generic_title2

$$$$
DiffSBDD_7_num_sample_100
     RDKit          3D

  0  0  0  0  0  0  0  0  0  0999 V3000
M  V30 BEGIN CTAB
M  V30 COUNTS 60 64 0 0 1
M  V30 BEGIN ATOM
M  V30 1 C 6.529907 5.447079 -13.543926 0 CFG=1
M  V30 2 C 9.891749 6.959032 -10.114929 0
M  V30 3 C 9.923762 6.752025 -8.717470 0
M  V30 4 O 5.593945 4.493007 -13.033128 0
M  V30 5 C 8.025598 3.353444 -16.308129 0 CFG=2
M  V30 6 C 5.554539 -1.106737 -18.680529 0
M  V30 7 F 11.806675 8.178507 -8.551495 0
M  V30 8 C 6.040893 1.386117 -18.729364 0
M  V30 9 C 8.202669 0.552528 -17.490134 0 CFG=2
M  V30 10 C 10.845644 7.587358 -7.839064 0
M  V30 11 C 6.344570 5.240102 -12.059766 0 CFG=1
M  V30 12 C 9.034840 -1.841397 -17.099514 0
M  V30 13 F 10.137828 8.528969 -7.215175 0
M  V30 14 C 8.241011 5.532501 -15.230466 0 CFG=1
M  V30 15 C 9.383725 3.979600 -16.679798 0
M  V30 16 N 7.575213 4.701812 -14.235127 0
M  V30 17 C 9.622081 5.105593 -15.661660 0
M  V30 18 C 9.291425 0.871062 -18.541574 0
M  V30 19 O 10.444522 1.097494 -18.113222 0
M  V30 20 C 7.817888 -0.953500 -17.427345 0 CFG=2
M  V30 21 F 11.427896 6.815211 -6.920649 0
M  V30 22 O 8.947089 0.868022 -19.743987 0 CHG=-1
M  V30 23 C 9.096402 5.769307 -8.134831 0
M  V30 24 C 8.237414 4.999405 -8.942099 0
M  V30 25 C 7.265230 4.388901 -11.202733 0
M  V30 26 O 7.639630 -1.425227 -19.870721 0
M  V30 27 C 8.202118 5.209011 -10.336734 0
M  V30 28 C 6.981429 1.523992 -17.511181 0 CFG=1
M  V30 29 C 5.131665 0.169313 -18.726472 0
M  V30 30 C 9.034875 6.185587 -10.923058 0
M  V30 31 O 7.384296 2.896287 -17.495291 0
M  V30 32 C 7.269491 4.482719 -15.643764 0 CFG=2
M  V30 33 C 7.008654 -1.539159 -18.613140 0 CFG=2
M  V30 34 H 6.077688 6.275918 -14.087013 0
M  V30 35 H 10.522181 7.710299 -10.565577 0
M  V30 36 H 8.158649 2.565897 -15.565416 0
M  V30 37 H 4.822901 -1.901790 -18.689513 0
M  V30 38 H 6.569911 1.441887 -19.678416 0
M  V30 39 H 5.372549 2.247736 -18.733065 0
M  V30 40 H 8.701156 0.725656 -16.537766 0
M  V30 41 H 5.749589 5.974369 -11.518799 0
M  V30 42 H 9.830993 -1.724761 -17.831352 0
M  V30 43 H 9.447725 -1.594384 -16.121684 0
M  V30 44 H 8.764556 -2.897266 -17.083538 0
M  V30 45 H 7.978764 6.583434 -15.146239 0
M  V30 46 H 10.195599 3.253950 -16.691704 0
M  V30 47 H 9.321657 4.411809 -17.679529 0
M  V30 48 H 10.185057 4.757242 -14.795061 0
M  V30 49 H 10.166211 5.935328 -16.112111 0
M  V30 50 H 7.166439 -1.051539 -16.557432 0
M  V30 51 H 9.117033 5.611537 -7.067664 0
M  V30 52 H 7.599524 4.253589 -8.490591 0
M  V30 53 H 6.634705 3.769303 -10.565899 0
M  V30 54 H 7.854938 3.717168 -11.825942 0
M  V30 55 H 8.070843 -0.565764 -19.910049 0
M  V30 56 H 6.383130 1.355496 -16.613683 0
M  V30 57 H 4.071437 0.367207 -18.775623 0
M  V30 58 H 9.010429 6.346793 -11.990673 0
M  V30 59 H 6.234846 4.704077 -15.891693 0
M  V30 60 H 6.934919 -2.613658 -18.440765 0
M  V30 END ATOM
M  V30 BEGIN BOND
M  V30 1 2 3 2
M  V30 2 1 4 1
M  V30 3 1 10 3
M  V30 4 1 10 7
M  V30 5 1 11 1
M  V30 6 1 11 4
M  V30 7 1 13 10
M  V30 8 1 15 5
M  V30 9 1 16 1
M  V30 10 1 16 14
M  V30 11 1 17 14
M  V30 12 1 17 15
M  V30 13 1 18 9
M  V30 14 2 19 18
M  V30 15 1 20 9
M  V30 16 1 20 12
M  V30 17 1 21 10
M  V30 18 1 22 18
M  V30 19 1 23 3
M  V30 20 2 24 23
M  V30 21 1 25 11
M  V30 22 1 27 24
M  V30 23 1 27 25
M  V30 24 1 28 8
M  V30 25 1 28 9
M  V30 26 2 29 6
M  V30 27 1 29 8
M  V30 28 1 30 2
M  V30 29 2 30 27
M  V30 30 1 31 5
M  V30 31 1 31 28
M  V30 32 1 32 5
M  V30 33 1 32 14
M  V30 34 1 32 16
M  V30 35 1 33 6
M  V30 36 1 33 20
M  V30 37 1 33 26
M  V30 38 1 1 34 CFG=1
M  V30 39 1 35 2
M  V30 40 1 5 36 CFG=1
M  V30 41 1 37 6
M  V30 42 1 38 8
M  V30 43 1 39 8
M  V30 44 1 9 40 CFG=1
M  V30 45 1 11 41 CFG=1
M  V30 46 1 42 12
M  V30 47 1 43 12
M  V30 48 1 44 12
M  V30 49 1 14 45 CFG=1
M  V30 50 1 46 15
M  V30 51 1 47 15
M  V30 52 1 48 17
M  V30 53 1 49 17
M  V30 54 1 20 50 CFG=1
M  V30 55 1 51 23
M  V30 56 1 52 24
M  V30 57 1 53 25
M  V30 58 1 54 25
M  V30 59 1 55 26
M  V30 60 1 28 56 CFG=1
M  V30 61 1 57 29
M  V30 62 1 58 30
M  V30 63 1 32 59 CFG=1
M  V30 64 1 33 60 CFG=1
M  V30 END BOND
M  V30 END CTAB
M  END
>  <i_epik_Tot_Q>  (1) 
-1

>  <i_epik_Tot_abs_Q>  (1) 
1

>  <i_i_glide_confnum>  (1) 
134

>  <i_i_glide_lignum>  (1) 
12

>  <i_i_glide_posenum>  (1) 
371

>  <i_i_glide_rotatable_bonds>  (1) 
8

>  <i_lp_mmshare_version>  (1) 
72125

>  <i_m_source_file_index>  (1) 
8

>  <i_f3d_flags>  (1) 
2

>  <num_sample>  (1) 
100

>  <b_lp_Chiralities_Consistent>  (1) 
0

>  <r_epik_Charging_Adjusted_Penalty>  (1) 
0.34130138700725487

>  <r_epik_Ionization_Penalty>  (1) 
0.34130148480546119

>  <r_epik_Ionization_Penalty_Charging>  (1) 
0.00038214034829849426

>  <r_epik_Ionization_Penalty_Neutral>  (1) 
0.34091934445716271

>  <r_epik_State_Penalty>  (1) 
0.3409192466589564

>  <r_glide_ring_energy>  (1) 
0.60616782339617148

>  <r_i_docking_score>  (1) 
-3.8415451556257945

>  <r_i_glide_ecoul>  (1) 
-0.56064623423255899

>  <r_i_glide_eff_state_penalty>  (1) 
0.3409192466589564

>  <r_i_glide_einternal>  (1) 
8.5037923525736758

>  <r_i_glide_emodel>  (1) 
-38.028694467728741

>  <r_i_glide_emodel_strain>  (1) 
0.84069809229031023

>  <r_i_glide_energy>  (1) 
-34.567354796849827

>  <r_i_glide_erotb>  (1) 
0.46357030645473651

>  <r_i_glide_esite>  (1) 
0

>  <r_i_glide_evdw>  (1) 
-34.00670856261727

>  <r_i_glide_gscore>  (1) 
-4.1824644022847508

>  <r_i_glide_gscore_strain>  (1) 
0

>  <r_i_glide_hbond>  (1) 
0

>  <r_i_glide_ligand_efficiency>  (1) 
-0.11641045926138771

>  <r_i_glide_ligand_efficiency_ln>  (1) 
-0.85433975215487512

>  <r_i_glide_ligand_efficiency_sa>  (1) 
-0.37339054445148173

>  <r_i_glide_lipo>  (1) 
-0.90249794697055163

>  <r_i_glide_metal>  (1) 
-0

>  <r_i_glide_rewards>  (1) 
-1.9591043985031886

>  <r_lp_Energy>  (1) 
31.397698999999999

>  <s_epik_Chemistry_Notes>  (1) 
This compound contains an acetal/aminal-like group ( X-CH(R)-Y where X, Y are N, S, or O) that may be acid/base labile, releasing an aldehyde.

>  <s_epik_cmdline>  (1) 
J2VwaWtfcHl0aG9uJywgJy1waHQnLCAnMS4wJywgJy1waCcsICc3LjQnLCAnLXRuJywgJzgnLCAnLW1hJywgJzUwMCcsICctaW1hZScsICc8aW5maWxlLm1hZT4nLCAnLW9tYWUnLCAnPG91dGZpbGUubWFlPic=

>  <s_epik_input>  (1) 
RkMoRikoRiljMVtjSF1bY0hdYyhbY0hdW2NIXTEpW0NIMl1bQ0BASF0yT1tDSF0yTjNbQ0BASF0oW0NASF0zNClbQ0BIXShbQ0gyXVtDSDJdNClPW0NASF01W0NIMl1bQ0hdPVtDSF1bQ0BASF0oW09IXSlbQ0BASF0oW0NIM10pW0NASF01Qyg9TylbT0hd

>  <s_glide_docking_method>  (1) 
confgen

>  <s_i_glide_gridfile>  (1) 
gpcr_drd2_6luq_protein_autoprepared_prepared

>  <s_lp_Force_Field>  (1) 
S-OPLS

>  <s_lp_Variant>  (1) 
DiffSBDD_7_num_sample_100-1

>  <s_m_source_file>  (1) 
generated__ligand_DiffSBDD_2026-05-06_prepared.sdf

>  <GenAI_Model>  (1) 
DiffSBDD

>  <Protein>  (1) 
generic_title2

$$$$
DiffSBDD_70_num_sample_100
     RDKit          3D

  0  0  0  0  0  0  0  0  0  0999 V3000
M  V30 BEGIN CTAB
M  V30 COUNTS 76 78 0 0 1
M  V30 BEGIN ATOM
M  V30 1 C 6.770429 5.273326 -18.743002 0 CFG=1
M  V30 2 C 5.382157 5.507945 -20.678295 0
M  V30 3 C 8.149546 4.261888 -17.038221 0 CFG=1
M  V30 4 C 8.253812 6.465655 -12.669613 0
M  V30 5 C 5.493165 5.558155 -14.934663 0
M  V30 6 Cl 5.875170 7.279248 -14.689566 0
M  V30 7 C 9.141885 6.802063 -11.450985 0
M  V30 8 C 5.870299 6.916059 -20.338316 0
M  V30 9 C 10.934862 7.108953 -9.188589 0
M  V30 10 C 6.692692 6.775111 -19.050726 0
M  V30 11 C 9.969142 5.888034 -9.206570 0 CFG=1
M  V30 12 C 9.348886 3.314865 -17.161118 0
M  V30 13 C 8.336686 5.263033 -15.871398 0
M  V30 14 C 9.623317 8.700639 -6.622128 0
M  V30 15 C 8.691840 5.159454 -13.376704 0 CFG=1
M  V30 16 C 11.546430 7.391460 -7.783369 0 CFG=2
M  V30 17 O 5.514491 2.636935 -21.194096 0
M  V30 18 O 9.034849 8.969294 -7.864267 0
M  V30 19 C 10.489743 7.443331 -6.661255 0 CFG=2
M  V30 20 C 8.713038 4.040404 -12.320359 0
M  V30 21 C 6.425369 4.564502 -20.067369 0 CFG=2
M  V30 22 C 6.487644 4.549260 -14.338332 0
M  V30 23 C 8.987101 5.878479 -8.038137 0
M  V30 24 O 8.080223 4.952909 -18.281478 0
M  V30 25 C 9.656144 6.169078 -6.690682 0
M  V30 26 C 5.908937 3.112845 -19.928321 0
M  V30 27 C 9.664967 4.418536 -11.197855 0
M  V30 28 O 13.373377 8.482385 -8.717666 0
M  V30 29 O 6.910321 2.298554 -19.372511 0
M  V30 30 F 11.141292 7.424870 -5.496149 0
M  V30 31 N 9.234076 5.656722 -10.499198 0 CFG=2 CHG=1
M  V30 32 N 7.922329 4.750822 -14.557846 0
M  V30 33 O 12.255962 8.616722 -7.800078 0
M  V30 34 H 5.995688 5.035745 -18.017661 0
M  V30 35 H 4.409317 5.334596 -20.215524 0
M  V30 36 H 5.265627 5.362190 -21.753013 0
M  V30 37 H 7.256031 3.653109 -16.895664 0
M  V30 38 H 7.222757 6.381551 -12.325035 0
M  V30 39 H 8.271000 7.301856 -13.366012 0
M  V30 40 H 5.378248 5.413119 -16.002635 0
M  V30 41 H 4.536212 5.375709 -14.454950 0
M  V30 42 H 8.720463 7.671372 -10.944993 0
M  V30 43 H 10.137822 7.080796 -11.798896 0
M  V30 44 H 5.042389 7.616705 -20.229319 0
M  V30 45 H 6.507955 7.285372 -21.142442 0
M  V30 46 H 10.438700 8.008758 -9.538424 0
M  V30 47 H 11.733291 6.969383 -9.915722 0
M  V30 48 H 6.243257 7.320367 -18.219689 0
M  V30 49 H 7.689409 7.187977 -19.207322 0
M  V30 50 H 10.574258 5.021819 -8.970505 0
M  V30 51 H 9.421524 2.668110 -16.291667 0
M  V30 52 H 9.255469 2.668489 -18.032804 0
M  V30 53 H 10.284733 3.866397 -17.258081 0
M  V30 54 H 7.786321 6.169406 -16.099023 0
M  V30 55 H 9.383000 5.570624 -15.843826 0
M  V30 56 H 8.824767 8.592038 -5.891708 0
M  V30 57 H 10.234878 9.553760 -6.325939 0
M  V30 58 H 9.725743 5.296390 -13.697457 0
M  V30 59 H 12.232204 6.595204 -7.491754 0
M  V30 60 H 5.159287 1.766099 -21.088510 0
M  V30 61 H 8.345406 8.339133 -8.051639 0
M  V30 62 H 7.727606 3.841936 -11.899939 0
M  V30 63 H 9.048202 3.106886 -12.776819 0
M  V30 64 H 7.307373 4.580844 -20.711202 0
M  V30 65 H 6.234891 3.560621 -14.719032 0
M  V30 66 H 6.273555 4.489267 -13.273396 0
M  V30 67 H 8.234835 6.612254 -8.226089 0
M  V30 68 H 8.466319 4.921231 -7.988488 0
M  V30 69 H 8.915672 6.169489 -5.891880 0
M  V30 70 H 10.353408 5.369290 -6.487169 0
M  V30 71 H 5.041207 3.081110 -19.267262 0
M  V30 72 H 10.634692 4.569467 -11.664176 0
M  V30 73 H 9.749043 3.593935 -10.492563 0
M  V30 74 H 14.081705 8.314856 -8.117193 0
M  V30 75 H 7.728062 2.502806 -19.801541 0
M  V30 76 H 8.278890 5.491998 -10.211899 0
M  V30 END ATOM
M  V30 BEGIN BOND
M  V30 1 1 6 5
M  V30 2 1 7 4
M  V30 3 1 8 2
M  V30 4 1 10 1
M  V30 5 1 10 8
M  V30 6 1 11 9
M  V30 7 1 12 3
M  V30 8 1 13 3
M  V30 9 1 15 4
M  V30 10 1 16 9
M  V30 11 1 18 14
M  V30 12 1 19 14
M  V30 13 1 19 16
M  V30 14 1 20 15
M  V30 15 1 21 1
M  V30 16 1 21 2
M  V30 17 1 22 5
M  V30 18 1 23 11
M  V30 19 1 24 1
M  V30 20 1 24 3
M  V30 21 1 25 19
M  V30 22 1 25 23
M  V30 23 1 26 17
M  V30 24 1 26 21
M  V30 25 1 27 20
M  V30 26 1 29 26
M  V30 27 1 19 30 CFG=1
M  V30 28 1 31 7
M  V30 29 1 31 11
M  V30 30 1 31 27
M  V30 31 1 32 13
M  V30 32 1 32 15
M  V30 33 1 32 22
M  V30 34 1 33 16
M  V30 35 1 33 28
M  V30 36 1 1 34 CFG=1
M  V30 37 1 35 2
M  V30 38 1 36 2
M  V30 39 1 3 37 CFG=1
M  V30 40 1 38 4
M  V30 41 1 39 4
M  V30 42 1 40 5
M  V30 43 1 41 5
M  V30 44 1 42 7
M  V30 45 1 43 7
M  V30 46 1 44 8
M  V30 47 1 45 8
M  V30 48 1 46 9
M  V30 49 1 47 9
M  V30 50 1 48 10
M  V30 51 1 49 10
M  V30 52 1 11 50 CFG=1
M  V30 53 1 51 12
M  V30 54 1 52 12
M  V30 55 1 53 12
M  V30 56 1 54 13
M  V30 57 1 55 13
M  V30 58 1 56 14
M  V30 59 1 57 14
M  V30 60 1 15 58 CFG=3
M  V30 61 1 16 59 CFG=1
M  V30 62 1 60 17
M  V30 63 1 61 18
M  V30 64 1 62 20
M  V30 65 1 63 20
M  V30 66 1 21 64 CFG=3
M  V30 67 1 65 22
M  V30 68 1 66 22
M  V30 69 1 67 23
M  V30 70 1 68 23
M  V30 71 1 69 25
M  V30 72 1 70 25
M  V30 73 1 71 26
M  V30 74 1 72 27
M  V30 75 1 73 27
M  V30 76 1 74 28
M  V30 77 1 75 29
M  V30 78 1 31 76 CFG=1
M  V30 END BOND
M  V30 END CTAB
M  END
>  <i_epik_Tot_Q>  (1) 
1

>  <i_epik_Tot_abs_Q>  (1) 
1

>  <i_i_glide_confnum>  (1) 
3775

>  <i_i_glide_lignum>  (1) 
142

>  <i_i_glide_posenum>  (1) 
10

>  <i_i_glide_rotatable_bonds>  (1) 
15

>  <i_lp_mmshare_version>  (1) 
72125

>  <i_m_source_file_index>  (1) 
71

>  <i_f3d_flags>  (1) 
0

>  <num_sample>  (1) 
100

>  <b_lp_Chiralities_Consistent>  (1) 
1

>  <r_epik_Charging_Adjusted_Penalty>  (1) 
0.025762522161214964

>  <r_epik_Ionization_Penalty>  (1) 
0.015537266588199847

>  <r_epik_Ionization_Penalty_Charging>  (1) 
0.0050933563181465155

>  <r_epik_Ionization_Penalty_Neutral>  (1) 
0.010443910270053331

>  <r_epik_State_Penalty>  (1) 
0.020669165843068448

>  <r_glide_ring_energy>  (1) 
0

>  <r_i_docking_score>  (1) 
-3.83802195775684

>  <r_i_glide_ecoul>  (1) 
-4.6150805050004609

>  <r_i_glide_eff_state_penalty>  (1) 
0.020669165843068448

>  <r_i_glide_einternal>  (1) 
9.7042686865764622

>  <r_i_glide_emodel>  (1) 
-28.705314807348476

>  <r_i_glide_emodel_strain>  (1) 
2.0161694369042067

>  <r_i_glide_energy>  (1) 
-26.275556039688023

>  <r_i_glide_erotb>  (1) 
0.82250602570520104

>  <r_i_glide_esite>  (1) 
-0.039459723384757721

>  <r_i_glide_evdw>  (1) 
-21.660475534687563

>  <r_i_glide_gscore>  (1) 
-3.8586911235999084

>  <r_i_glide_gscore_strain>  (1) 
0

>  <r_i_glide_hbond>  (1) 
0

>  <r_i_glide_ligand_efficiency>  (1) 
-0.11630369568960121

>  <r_i_glide_ligand_efficiency_ln>  (1) 
-0.85355621119096192

>  <r_i_glide_ligand_efficiency_sa>  (1) 
-0.37304809662978355

>  <r_i_glide_lipo>  (1) 
-1.830838285137852

>  <r_i_glide_metal>  (1) 
-0

>  <r_i_glide_rewards>  (1) 
-1.0356132882980527

>  <r_lp_Energy>  (1) 
60.521072999999994

>  <s_epik_Chemistry_Notes>  (1) 
This compound contains an acetal/aminal-like group ( X-CH(R)-Y where X, Y are N, S, or O) that may be acid/base labile, releasing an aldehyde.

>  <s_epik_cmdline>  (1) 
J2VwaWtfcHl0aG9uJywgJy1waHQnLCAnMS4wJywgJy1waCcsICc3LjQnLCAnLXRuJywgJzgnLCAnLW1hJywgJzUwMCcsICctaW1hZScsICc8aW5maWxlLm1hZT4nLCAnLW9tYWUnLCAnPG91dGZpbGUubWFlPic=

>  <s_epik_input>  (1) 
W09IXVtDSF0oW09IXSlbQ0BIXTFbQ0gyXVtDSDJdW0NIMl1bQ0BASF0xT1tDQEBIXShbQ0gzXSlbQ0gyXU4oW0NIMl1bQ0gyXUNsKVtDSF0yW0NIMl1bQ0gyXU4oW0NIMl1bQ0gyXTIpW0NASF0oW0NIMl1bQ0gyXTMpW0NIMl1bQ0BASF0oT1tPSF0pW0NAQF0zKEYpW0NIMl1bT0hd

>  <s_glide_docking_method>  (1) 
confgen

>  <s_i_glide_gridfile>  (1) 
gpcr_drd2_6luq_protein_autoprepared_prepared

>  <s_lp_Force_Field>  (1) 
S-OPLS

>  <s_lp_Variant>  (1) 
DiffSBDD_70_num_sample_100-2

>  <s_m_source_file>  (1) 
generated__ligand_DiffSBDD_2026-05-06_prepared.sdf

>  <GenAI_Model>  (1) 
DiffSBDD

>  <Protein>  (1) 
generic_title2

$$$$
DiffSBDD_0_num_sample_100
     RDKit          3D

  0  0  0  0  0  0  0  0  0  0999 V3000
M  V30 BEGIN CTAB
M  V30 COUNTS 105 110 0 0 1
M  V30 BEGIN ATOM
M  V30 1 C 14.761835 10.472865 -18.770185 0
M  V30 2 C 7.037111 3.196785 -19.484065 0
M  V30 3 O 10.210793 2.261619 -20.840811 0
M  V30 4 C 10.227107 2.493807 -22.233320 0 CFG=1
M  V30 5 S 5.066456 6.569278 -17.211709 0
M  V30 6 C 13.882197 8.317423 -19.925246 0 CFG=1
M  V30 7 C 12.688322 8.516416 -22.791482 0
M  V30 8 C 11.242383 5.338314 -22.497015 0 CFG=2
M  V30 9 C 7.602158 -0.456642 -16.895530 0
M  V30 10 C 11.611178 7.836589 -21.920309 0
M  V30 11 C 13.523809 6.819129 -19.623927 0 CFG=1
M  V30 12 C 14.144334 8.084774 -22.531275 0
M  V30 13 C 7.464510 6.183781 -18.423424 0 CFG=1
M  V30 14 O 4.758118 7.257818 -18.542714 0
M  V30 15 C 8.830089 5.990444 -20.032123 0 CFG=2
M  V30 16 N 6.787474 -0.021673 -14.591976 0 CHG=1
M  V30 17 C 15.503816 6.843565 -17.952673 0
M  V30 18 O 5.423653 7.769315 -16.053124 0
M  V30 19 O 8.460443 7.934804 -21.327870 0
M  V30 20 C 7.298129 5.757463 -19.902309 0 CFG=1
M  V30 21 C 12.730287 5.944426 -20.648291 0
M  V30 22 C 6.087534 0.092765 -12.242738 0
M  V30 23 O 9.235767 7.342641 -20.240645 0
M  V30 24 O 9.642792 4.997546 -20.658758 0
M  V30 25 S 12.935726 4.218501 -20.574594 0
M  V30 26 C 14.815203 6.109096 -19.114663 0
M  V30 27 C 6.109686 1.973262 -19.636290 0
M  V30 28 C 6.744458 4.227019 -21.871997 0
M  V30 29 C 6.985211 0.804143 -17.525708 0
M  V30 30 C 6.711438 0.689519 -19.032724 0
M  V30 31 C 12.208413 4.116436 -22.268319 0 CFG=1
M  V30 32 O 6.234838 2.872425 -12.635152 0
M  V30 33 C 7.000042 0.708003 -13.325752 0 CFG=2
M  V30 34 C 6.644783 4.430030 -20.330888 0 CFG=1
M  V30 35 C 7.992487 -0.212880 -15.429314 0
M  V30 36 C 9.282512 3.656177 -22.632692 0 CFG=1
M  V30 37 C 6.732999 2.216658 -13.572040 0
M  V30 38 C 11.666860 2.742574 -22.679666 0
M  V30 39 N 15.760699 8.254644 -18.292324 0 CHG=1
M  V30 40 O 7.034855 2.673811 -14.697995 0 CHG=-1
M  V30 41 N 6.592447 5.754199 -17.334005 0
M  V30 42 C 14.521737 8.960956 -18.663493 0 CFG=1
M  V30 43 C 7.796151 3.235484 -22.430793 0
M  V30 44 C 11.910285 6.378002 -21.614766 0
M  V30 45 C 14.731222 8.571306 -21.200407 0
M  V30 46 C 9.757805 5.028325 -22.078150 0 CFG=2
M  V30 47 C 8.920774 5.732856 -18.522434 0
M  V30 48 H 13.845614 10.969249 -19.080858 0
M  V30 49 H 15.537260 10.727054 -19.491848 0
M  V30 50 H 15.046092 10.898811 -17.807464 0
M  V30 51 H 8.066344 2.919321 -19.689683 0
M  V30 52 H 7.025446 3.464974 -18.432265 0
M  V30 53 H 10.296254 3.104101 -20.412158 0
M  V30 54 H 9.886652 1.572893 -22.709211 0
M  V30 55 H 12.977340 8.899796 -20.011362 0
M  V30 56 H 12.595146 9.600394 -22.712487 0
M  V30 57 H 12.465061 8.279933 -23.831704 0
M  V30 58 H 11.283505 5.636792 -23.545178 0
M  V30 59 H 8.497227 -0.733802 -17.453983 0
M  V30 60 H 6.917273 -1.302025 -16.975581 0
M  V30 61 H 11.349295 8.390901 -21.025641 0
M  V30 62 H 10.696926 7.867679 -22.507919 0
M  V30 63 H 12.842692 6.848910 -18.771813 0
M  V30 64 H 14.256804 7.005146 -22.626341 0
M  V30 65 H 14.762610 8.490560 -23.332861 0
M  V30 66 H 7.460906 7.273928 -18.377639 0
M  V30 67 H 6.354432 -0.914610 -14.398251 0
M  V30 68 H 16.447647 6.357559 -17.703691 0
M  V30 69 H 14.879770 6.796574 -17.058802 0
M  V30 70 H 6.006504 7.399350 -15.407778 0
M  V30 71 H 9.016543 7.752713 -22.069323 0
M  V30 72 H 6.733489 6.557027 -20.380094 0
M  V30 73 H 6.219232 0.569296 -11.272557 0
M  V30 74 H 6.305716 -0.966675 -12.101646 0
M  V30 75 H 5.034974 0.169238 -12.517387 0
M  V30 76 H 14.600477 5.109926 -18.738805 0
M  V30 77 H 15.515178 5.981690 -19.941509 0
M  V30 78 H 5.146697 2.186284 -19.170218 0
M  V30 79 H 5.891490 1.788095 -20.687508 0
M  V30 80 H 6.818129 5.185421 -22.386154 0
M  V30 81 H 5.776003 3.834257 -22.185312 0
M  V30 82 H 6.055400 1.063159 -17.017876 0
M  V30 83 H 7.671150 1.632021 -17.347282 0
M  V30 84 H 7.637256 0.446098 -19.556017 0
M  V30 85 H 6.030362 -0.142566 -19.214792 0
M  V30 86 H 13.074361 4.293327 -22.908674 0
M  V30 87 H 8.035954 0.591908 -13.001616 0
M  V30 88 H 5.581571 4.571632 -20.129835 0
M  V30 89 H 8.593349 -1.030577 -15.034305 0
M  V30 90 H 8.632106 0.669381 -15.377258 0
M  V30 91 H 9.390069 3.758952 -23.714052 0
M  V30 92 H 12.325527 1.949327 -22.323746 0
M  V30 93 H 11.694263 2.680834 -23.768223 0
M  V30 94 H 16.176305 8.715903 -17.495951 0
M  V30 95 H 6.506801 4.748780 -17.284260 0
M  V30 96 H 13.827843 8.830830 -17.831770 0
M  V30 97 H 7.750083 2.302638 -21.873346 0
M  V30 98 H 7.434492 2.936368 -23.415599 0
M  V30 99 H 14.885596 9.643907 -21.315689 0
M  V30 100 H 15.725585 8.140588 -21.086555 0
M  V30 101 H 9.115474 5.798985 -22.499024 0
M  V30 102 H 9.635083 6.363388 -17.993948 0
M  V30 103 H 9.066915 4.682627 -18.267195 0
M  V30 104 H 6.144431 0.557712 -15.113411 0
M  V30 105 H 16.401857 8.298997 -19.071408 0
M  V30 END ATOM
M  V30 BEGIN BOND
M  V30 1 1 4 3
M  V30 2 1 10 7
M  V30 3 1 11 6
M  V30 4 1 12 7
M  V30 5 2 14 5
M  V30 6 1 5 18 CFG=1
M  V30 7 1 20 13
M  V30 8 1 20 15
M  V30 9 1 21 11
M  V30 10 1 15 23 CFG=1
M  V30 11 1 23 19
M  V30 12 1 24 15
M  V30 13 1 25 21
M  V30 14 1 26 11
M  V30 15 1 26 17
M  V30 16 1 27 2
M  V30 17 1 29 9
M  V30 18 1 30 27
M  V30 19 1 30 29
M  V30 20 1 31 8
M  V30 21 1 31 25
M  V30 22 1 33 16
M  V30 23 1 33 22
M  V30 24 1 34 2
M  V30 25 1 34 20
M  V30 26 1 34 28
M  V30 27 1 35 9
M  V30 28 1 35 16
M  V30 29 1 36 4
M  V30 30 2 37 32
M  V30 31 1 37 33
M  V30 32 1 38 4
M  V30 33 1 38 31
M  V30 34 1 39 17
M  V30 35 1 40 37
M  V30 36 1 41 5
M  V30 37 1 41 13
M  V30 38 1 42 1
M  V30 39 1 42 6
M  V30 40 1 42 39
M  V30 41 1 43 28
M  V30 42 1 43 36
M  V30 43 1 44 8
M  V30 44 1 44 10
M  V30 45 2 44 21
M  V30 46 1 45 6
M  V30 47 1 45 12
M  V30 48 1 46 8
M  V30 49 1 46 24
M  V30 50 1 46 36
M  V30 51 1 47 13
M  V30 52 1 47 15
M  V30 53 1 48 1
M  V30 54 1 49 1
M  V30 55 1 50 1
M  V30 56 1 51 2
M  V30 57 1 52 2
M  V30 58 1 53 3
M  V30 59 1 4 54 CFG=3
M  V30 60 1 6 55 CFG=3
M  V30 61 1 56 7
M  V30 62 1 57 7
M  V30 63 1 8 58 CFG=3
M  V30 64 1 59 9
M  V30 65 1 60 9
M  V30 66 1 61 10
M  V30 67 1 62 10
M  V30 68 1 11 63 CFG=1
M  V30 69 1 64 12
M  V30 70 1 65 12
M  V30 71 1 13 66 CFG=3
M  V30 72 1 67 16
M  V30 73 1 68 17
M  V30 74 1 69 17
M  V30 75 1 70 18
M  V30 76 1 71 19
M  V30 77 1 20 72 CFG=3
M  V30 78 1 73 22
M  V30 79 1 74 22
M  V30 80 1 75 22
M  V30 81 1 76 26
M  V30 82 1 77 26
M  V30 83 1 78 27
M  V30 84 1 79 27
M  V30 85 1 80 28
M  V30 86 1 81 28
M  V30 87 1 82 29
M  V30 88 1 83 29
M  V30 89 1 84 30
M  V30 90 1 85 30
M  V30 91 1 31 86 CFG=3
M  V30 92 1 33 87 CFG=1
M  V30 93 1 34 88 CFG=3
M  V30 94 1 89 35
M  V30 95 1 90 35
M  V30 96 1 36 91 CFG=3
M  V30 97 1 92 38
M  V30 98 1 93 38
M  V30 99 1 94 39
M  V30 100 1 95 41
M  V30 101 1 42 96 CFG=1
M  V30 102 1 97 43
M  V30 103 1 98 43
M  V30 104 1 99 45
M  V30 105 1 100 45
M  V30 106 1 46 101 CFG=3
M  V30 107 1 102 47
M  V30 108 1 103 47
M  V30 109 1 104 16
M  V30 110 1 105 39
M  V30 END BOND
M  V30 END CTAB
M  END
>  <i_epik_Tot_Q>  (1) 
1

>  <i_epik_Tot_abs_Q>  (1) 
3

>  <i_i_glide_confnum>  (1) 
1732

>  <i_i_glide_lignum>  (1) 
2

>  <i_i_glide_posenum>  (1) 
396

>  <i_i_glide_rotatable_bonds>  (1) 
15

>  <i_lp_mmshare_version>  (1) 
72125

>  <i_m_source_file_index>  (1) 
1

>  <i_f3d_flags>  (1) 
0

>  <num_sample>  (1) 
100

>  <b_lp_Chiralities_Consistent>  (1) 
1

>  <r_epik_Charging_Adjusted_Penalty>  (1) 
0.0032360822409407838

>  <r_epik_Ionization_Penalty>  (1) 
0.0033274947784888795

>  <r_epik_Ionization_Penalty_Charging>  (1) 
0.0032360822409407838

>  <r_epik_Ionization_Penalty_Neutral>  (1) 
9.1412537548095675e-05

>  <r_epik_State_Penalty>  (1) 
-0

>  <r_glide_ring_energy>  (1) 
0

>  <r_i_docking_score>  (1) 
-3.8363896953401802

>  <r_i_glide_ecoul>  (1) 
-3.3561631355224018

>  <r_i_glide_eff_state_penalty>  (1) 
-0

>  <r_i_glide_einternal>  (1) 
7.4153570773398734

>  <r_i_glide_emodel>  (1) 
-44.814052852328302

>  <r_i_glide_emodel_strain>  (1) 
0.36921876118262276

>  <r_i_glide_energy>  (1) 
-38.991426713913697

>  <r_i_glide_erotb>  (1) 
0.30458455882301022

>  <r_i_glide_esite>  (1) 
0

>  <r_i_glide_evdw>  (1) 
-35.635263578391296

>  <r_i_glide_gscore>  (1) 
-3.8363896953401802

>  <r_i_glide_gscore_strain>  (1) 
0

>  <r_i_glide_hbond>  (1) 
-0.036789488770087309

>  <r_i_glide_ligand_efficiency>  (1) 
-0.081625312666812347

>  <r_i_glide_ligand_efficiency_ln>  (1) 
-0.79098411231599453

>  <r_i_glide_ligand_efficiency_sa>  (1) 
-0.29457155715146777

>  <r_i_glide_lipo>  (1) 
-1.071627601275764

>  <r_i_glide_metal>  (1) 
-0

>  <r_i_glide_rewards>  (1) 
-0.74736951486941428

>  <r_lp_Energy>  (1) 
59.080839999999995

>  <r_lp_tautomer_probability>  (1) 
1

>  <s_epik_cmdline>  (1) 
J2VwaWtfcHl0aG9uJywgJy1waHQnLCAnMS4wJywgJy1waCcsICc3LjQnLCAnLXRuJywgJzgnLCAnLW1hJywgJzUwMCcsICctaW1hZScsICc8aW5maWxlLm1hZT4nLCAnLW9tYWUnLCAnPG91dGZpbGUubWFlPic=

>  <s_epik_input>  (1) 
W0NIM11bQ0BASF0xW05IXVtDSDJdW0NIMl1bQ0BIXTJbQ0BASF0xW0NIMl1bQ0gyXVtDSDJdW0NIMl1DMz1DMlNbQ0BASF0oW0NIMl1bQ0BIXTRbT0hdKVtDQEhdM1tDQEhdKE81KVtDQEBIXTRbQ0gyXVtDSDJdW0NASF0oW0NASF0oW0NAXTU2T1tPSF0pW0NASF0oW0NIMl02KVtOSF1bU0BdKD1PKVtPSF0pW0NIMl1bQ0gyXVtDSDJdW0NIMl1bQ0gyXVtDSDJdW05IXVtDQEhdKFtDSDNdKUMoPU8pW09IXQ==

>  <s_glide_docking_method>  (1) 
confgen

>  <s_i_glide_gridfile>  (1) 
gpcr_drd2_6luq_protein_autoprepared_prepared

>  <s_lp_Force_Field>  (1) 
S-OPLS

>  <s_lp_Variant>  (1) 
DiffSBDD_0_num_sample_100-2

>  <s_m_source_file>  (1) 
generated__ligand_DiffSBDD_2026-05-06_prepared.sdf

>  <GenAI_Model>  (1) 
DiffSBDD

>  <Protein>  (1) 
generic_title2

$$$$
DiffSBDD_70_num_sample_100
     RDKit          3D

  0  0  0  0  0  0  0  0  0  0999 V3000
M  V30 BEGIN CTAB
M  V30 COUNTS 76 78 0 0 1
M  V30 BEGIN ATOM
M  V30 1 C 11.841200 7.198531 -4.049604 0 CFG=1
M  V30 2 C 12.773651 8.332235 -2.166053 0
M  V30 3 C 10.749709 6.917131 -6.260901 0 CFG=1
M  V30 4 C 9.397056 7.545087 -10.749358 0
M  V30 5 C 12.582272 8.644505 -10.140898 0
M  V30 6 Cl 14.161308 8.169193 -9.491642 0
M  V30 7 C 9.361055 6.344459 -11.675853 0
M  V30 8 C 12.180272 7.005883 -1.694260 0
M  V30 9 C 7.090321 5.446925 -13.494999 0
M  V30 10 C 11.819834 6.188875 -2.928193 0
M  V30 11 C 7.654982 4.618340 -12.313469 0 CFG=1
M  V30 12 C 10.103518 8.314906 -6.219847 0
M  V30 13 C 11.412184 6.583162 -7.608117 0
M  V30 14 C 8.698124 3.932374 -16.022547 0
M  V30 15 C 9.579767 7.144655 -9.257930 0 CFG=1
M  V30 16 C 6.560607 4.589944 -14.663240 0 CFG=2
M  V30 17 O 13.173523 9.769239 -5.676773 0
M  V30 18 O 9.504594 4.969211 -15.493997 0
M  V30 19 C 7.550387 3.464048 -15.085304 0 CFG=2
M  V30 20 C 8.809981 5.836721 -8.872841 0
M  V30 21 C 12.885272 8.225699 -3.694258 0 CFG=2
M  V30 22 C 11.554101 8.568824 -9.025168 0
M  V30 23 C 8.637699 3.523112 -12.773632 0
M  V30 24 O 11.834756 6.649608 -5.356456 0
M  V30 25 C 7.990562 2.648895 -13.855306 0
M  V30 26 C 12.729122 9.617434 -4.345963 0
M  V30 27 C 8.562130 4.819206 -9.993541 0
M  V30 28 O 5.434899 6.499118 -15.459906 0
M  V30 29 O 11.434630 10.169178 -4.167663 0
M  V30 30 F 6.902533 2.569754 -15.827213 0
M  V30 31 N 8.219920 5.502499 -11.258967 0 CFG=1 CHG=1
M  V30 32 N 10.991495 7.225406 -8.858197 0
M  V30 33 O 6.324991 5.404463 -15.807959 0
M  V30 34 H 11.034836 7.814921 -3.891687 0
M  V30 35 H 12.094927 9.137200 -1.874055 0
M  V30 36 H 13.731578 8.569549 -1.701757 0
M  V30 37 H 9.963647 6.198071 -6.037540 0
M  V30 38 H 10.158891 8.231693 -11.104054 0
M  V30 39 H 8.481985 8.114865 -10.891197 0
M  V30 40 H 12.358303 7.980666 -10.976351 0
M  V30 41 H 12.638162 9.667293 -10.506280 0
M  V30 42 H 10.287773 5.777642 -11.627938 0
M  V30 43 H 9.299579 6.714518 -12.691813 0
M  V30 44 H 11.271169 7.205997 -1.109021 0
M  V30 45 H 12.899152 6.450461 -1.091864 0
M  V30 46 H 7.817468 6.128770 -13.923081 0
M  V30 47 H 6.294437 6.081964 -13.104991 0
M  V30 48 H 10.821953 5.769385 -2.836835 0
M  V30 49 H 12.547325 5.395687 -3.091270 0
M  V30 50 H 6.801765 4.114705 -11.858221 0
M  V30 51 H 9.158357 8.348870 -6.757762 0
M  V30 52 H 9.835137 8.568971 -5.223891 0
M  V30 53 H 10.735595 9.119351 -6.574142 0
M  V30 54 H 11.396451 5.502173 -7.729396 0
M  V30 55 H 12.463615 6.836821 -7.490270 0
M  V30 56 H 9.333069 3.091130 -16.293336 0
M  V30 57 H 8.278634 4.287835 -16.963740 0
M  V30 58 H 9.057154 7.936650 -8.728145 0
M  V30 59 H 5.624563 4.142827 -14.326081 0
M  V30 60 H 12.796540 9.081064 -6.204300 0
M  V30 61 H 10.187643 4.585286 -14.961734 0
M  V30 62 H 9.228785 5.315271 -8.017218 0
M  V30 63 H 7.834935 6.136903 -8.505564 0
M  V30 64 H 13.834800 7.770043 -3.891667 0
M  V30 65 H 10.760540 9.296833 -9.199492 0
M  V30 66 H 12.054388 8.910895 -8.122681 0
M  V30 67 H 9.567471 3.966955 -13.123795 0
M  V30 68 H 8.919738 2.885887 -11.936874 0
M  V30 69 H 8.634639 1.821341 -14.149203 0
M  V30 70 H 7.117383 2.157731 -13.422264 0
M  V30 71 H 13.444485 10.169392 -3.762342 0
M  V30 72 H 7.739049 4.170037 -9.696186 0
M  V30 73 H 9.439691 4.184941 -10.121438 0
M  V30 74 H 6.056343 7.175356 -15.236882 0
M  V30 75 H 10.813875 9.642622 -4.643821 0
M  V30 76 H 7.478561 6.149669 -11.008172 0
M  V30 END ATOM
M  V30 BEGIN BOND
M  V30 1 1 6 5
M  V30 2 1 7 4
M  V30 3 1 8 2
M  V30 4 1 10 1
M  V30 5 1 10 8
M  V30 6 1 11 9
M  V30 7 1 12 3
M  V30 8 1 13 3
M  V30 9 1 15 4
M  V30 10 1 16 9
M  V30 11 1 18 14
M  V30 12 1 19 14
M  V30 13 1 19 16
M  V30 14 1 20 15
M  V30 15 1 21 1
M  V30 16 1 21 2
M  V30 17 1 22 5
M  V30 18 1 23 11
M  V30 19 1 24 1
M  V30 20 1 24 3
M  V30 21 1 25 19
M  V30 22 1 25 23
M  V30 23 1 26 17
M  V30 24 1 26 21
M  V30 25 1 27 20
M  V30 26 1 29 26
M  V30 27 1 19 30 CFG=3
M  V30 28 1 31 7
M  V30 29 1 31 11
M  V30 30 1 31 27
M  V30 31 1 32 13
M  V30 32 1 32 15
M  V30 33 1 32 22
M  V30 34 1 33 16
M  V30 35 1 33 28
M  V30 36 1 1 34 CFG=3
M  V30 37 1 35 2
M  V30 38 1 36 2
M  V30 39 1 3 37 CFG=1
M  V30 40 1 38 4
M  V30 41 1 39 4
M  V30 42 1 40 5
M  V30 43 1 41 5
M  V30 44 1 42 7
M  V30 45 1 43 7
M  V30 46 1 44 8
M  V30 47 1 45 8
M  V30 48 1 46 9
M  V30 49 1 47 9
M  V30 50 1 48 10
M  V30 51 1 49 10
M  V30 52 1 11 50 CFG=1
M  V30 53 1 51 12
M  V30 54 1 52 12
M  V30 55 1 53 12
M  V30 56 1 54 13
M  V30 57 1 55 13
M  V30 58 1 56 14
M  V30 59 1 57 14
M  V30 60 1 15 58 CFG=1
M  V30 61 1 16 59 CFG=1
M  V30 62 1 60 17
M  V30 63 1 61 18
M  V30 64 1 62 20
M  V30 65 1 63 20
M  V30 66 1 21 64 CFG=1
M  V30 67 1 65 22
M  V30 68 1 66 22
M  V30 69 1 67 23
M  V30 70 1 68 23
M  V30 71 1 69 25
M  V30 72 1 70 25
M  V30 73 1 71 26
M  V30 74 1 72 27
M  V30 75 1 73 27
M  V30 76 1 74 28
M  V30 77 1 75 29
M  V30 78 1 31 76 CFG=1
M  V30 END BOND
M  V30 END CTAB
M  END
>  <i_epik_Tot_Q>  (1) 
1

>  <i_epik_Tot_abs_Q>  (1) 
1

>  <i_i_glide_confnum>  (1) 
2514

>  <i_i_glide_lignum>  (1) 
141

>  <i_i_glide_posenum>  (1) 
11

>  <i_i_glide_rotatable_bonds>  (1) 
15

>  <i_lp_mmshare_version>  (1) 
72125

>  <i_m_source_file_index>  (1) 
71

>  <i_f3d_flags>  (1) 
0

>  <num_sample>  (1) 
100

>  <b_lp_Chiralities_Consistent>  (1) 
1

>  <r_epik_Charging_Adjusted_Penalty>  (1) 
0.025762522161214964

>  <r_epik_Ionization_Penalty>  (1) 
0.015537266588199847

>  <r_epik_Ionization_Penalty_Charging>  (1) 
0.0050933563181465155

>  <r_epik_Ionization_Penalty_Neutral>  (1) 
0.010443910270053331

>  <r_epik_State_Penalty>  (1) 
0.020669165843068448

>  <r_glide_ring_energy>  (1) 
0

>  <r_i_docking_score>  (1) 
-3.8348929614032152

>  <r_i_glide_ecoul>  (1) 
-6.1745964903675024

>  <r_i_glide_eff_state_penalty>  (1) 
0.020669165843068448

>  <r_i_glide_einternal>  (1) 
28.500834991459715

>  <r_i_glide_emodel>  (1) 
-12.620397126907335

>  <r_i_glide_emodel_strain>  (1) 
9.4714333089420535

>  <r_i_glide_energy>  (1) 
-24.405111777365796

>  <r_i_glide_erotb>  (1) 
0.82250602570520104

>  <r_i_glide_esite>  (1) 
-0.038324990105202059

>  <r_i_glide_evdw>  (1) 
-18.230515286998294

>  <r_i_glide_gscore>  (1) 
-3.8555621272462837

>  <r_i_glide_gscore_strain>  (1) 
1.3678583272355134

>  <r_i_glide_hbond>  (1) 
-0.019614518507124583

>  <r_i_glide_ligand_efficiency>  (1) 
-0.11620887761827925

>  <r_i_glide_ligand_efficiency_ln>  (1) 
-0.85286033860299182

>  <r_i_glide_ligand_efficiency_sa>  (1) 
-0.37274396441091434

>  <r_i_glide_lipo>  (1) 
-2.6770552339297704

>  <r_i_glide_metal>  (1) 
-0

>  <r_i_glide_rewards>  (1) 
-1.4732164997398614

>  <r_lp_Energy>  (1) 
61.015052999999995

>  <s_epik_Chemistry_Notes>  (1) 
This compound contains an acetal/aminal-like group ( X-CH(R)-Y where X, Y are N, S, or O) that may be acid/base labile, releasing an aldehyde.

>  <s_epik_cmdline>  (1) 
J2VwaWtfcHl0aG9uJywgJy1waHQnLCAnMS4wJywgJy1waCcsICc3LjQnLCAnLXRuJywgJzgnLCAnLW1hJywgJzUwMCcsICctaW1hZScsICc8aW5maWxlLm1hZT4nLCAnLW9tYWUnLCAnPG91dGZpbGUubWFlPic=

>  <s_epik_input>  (1) 
W09IXVtDSF0oW09IXSlbQ0BIXTFbQ0gyXVtDSDJdW0NIMl1bQ0BASF0xT1tDQEBIXShbQ0gzXSlbQ0gyXU4oW0NIMl1bQ0gyXUNsKVtDSF0yW0NIMl1bQ0gyXU4oW0NIMl1bQ0gyXTIpW0NASF0oW0NIMl1bQ0gyXTMpW0NIMl1bQ0BASF0oT1tPSF0pW0NAQF0zKEYpW0NIMl1bT0hd

>  <s_glide_docking_method>  (1) 
confgen

>  <s_i_glide_gridfile>  (1) 
gpcr_drd2_6luq_protein_autoprepared_prepared

>  <s_lp_Force_Field>  (1) 
S-OPLS

>  <s_lp_Variant>  (1) 
DiffSBDD_70_num_sample_100-1

>  <s_m_source_file>  (1) 
generated__ligand_DiffSBDD_2026-05-06_prepared.sdf

>  <GenAI_Model>  (1) 
DiffSBDD

>  <Protein>  (1) 
generic_title2

$$$$
DiffSBDD_82_num_sample_100
     RDKit          3D

  0  0  0  0  0  0  0  0  0  0999 V3000
M  V30 BEGIN CTAB
M  V30 COUNTS 64 68 0 0 1
M  V30 BEGIN ATOM
M  V30 1 C 10.567762 7.277706 -8.438254 0
M  V30 2 N 7.282734 2.152296 -19.467466 0
M  V30 3 C 8.234491 7.354593 -12.880877 0
M  V30 4 C 8.919923 4.964916 -9.353190 0
M  V30 5 O 7.150796 4.169303 -11.440325 0
M  V30 6 C 9.875280 6.170667 -7.655159 0
M  V30 7 O 7.288692 -0.115175 -19.305786 0
M  V30 8 C 7.316244 4.804180 -15.002142 0 CFG=2
M  V30 9 C 9.303741 4.951477 -16.730772 0
M  V30 10 C 7.108217 0.017213 -16.894588 0
M  V30 11 F 11.655477 7.550660 -6.308884 0
M  V30 12 C 7.964164 2.860607 -17.277655 0 CFG=1
M  V30 13 C 7.253885 2.380023 -15.986267 0 CFG=1
M  V30 14 F 6.566445 0.574183 -14.670839 0
M  V30 15 C 7.403041 0.875330 -15.668362 0
M  V30 16 F 11.072504 8.712702 -10.157018 0
M  V30 17 C 6.629089 5.623174 -13.847643 0 CFG=2
M  V30 18 C 8.697307 5.812880 -10.568092 0
M  V30 19 C 5.809248 6.780253 -14.454254 0
M  V30 20 C 9.374530 7.068755 -10.730338 0
M  V30 21 C 7.803008 5.354729 -11.584107 0
M  V30 22 O 11.491060 7.957315 -7.688895 0
M  V30 23 C 6.966308 1.025712 -19.977832 0
M  V30 24 C 7.882180 0.385197 -18.153978 0 CFG=2
M  V30 25 C 7.381000 3.283725 -14.728334 0
M  V30 26 C 7.583786 6.125299 -12.739707 0
M  V30 27 C 6.250491 0.841605 -21.280653 0
M  V30 28 C 9.356517 3.451378 -17.058180 0
M  V30 29 N 7.938078 1.837341 -18.329793 0
M  V30 30 C 6.205398 -0.982592 -16.873650 0
M  V30 31 C 10.345381 7.666831 -9.726634 0
M  V30 32 C 8.719727 5.336059 -15.361218 0
M  V30 33 F 8.634837 0.644574 -15.239981 0
M  V30 34 C 9.122204 7.814271 -11.900306 0
M  V30 35 N 8.634807 5.663641 -8.146791 0
M  V30 36 H 8.060114 7.954268 -13.755694 0
M  V30 37 H 9.892410 4.474884 -9.369558 0
M  V30 38 H 8.185642 4.169374 -9.340511 0
M  V30 39 H 7.212712 3.816195 -10.567099 0
M  V30 40 H 10.589901 5.366434 -7.484867 0
M  V30 41 H 9.625301 6.562792 -6.669591 0
M  V30 42 H 6.672179 4.926023 -15.874105 0
M  V30 43 H 10.317580 5.348557 -16.780200 0
M  V30 44 H 8.752016 5.472042 -17.516418 0
M  V30 45 H 7.355959 3.683818 -17.658548 0
M  V30 46 H 6.234839 2.440256 -16.283795 0
M  V30 47 H 5.873332 4.992535 -13.379196 0
M  V30 48 H 5.321276 7.365427 -13.674389 0
M  V30 49 H 5.034873 6.391687 -15.114033 0
M  V30 50 H 6.415767 7.458344 -15.054455 0
M  V30 51 H 8.905835 0.019359 -18.069950 0
M  V30 52 H 6.574096 3.004910 -14.051423 0
M  V30 53 H 8.292158 3.046430 -14.181062 0
M  V30 54 H 5.829620 1.780294 -21.642248 0
M  V30 55 H 5.434931 0.128769 -21.166084 0
M  V30 56 H 6.926860 0.459198 -22.045631 0
M  V30 57 H 9.879039 2.895926 -16.291667 0
M  V30 58 H 9.942816 3.339581 -17.970762 0
M  V30 59 H 5.658058 -1.224196 -15.973491 0
M  V30 60 H 6.005031 -1.570990 -17.757068 0
M  V30 61 H 8.634811 6.413272 -15.382376 0
M  V30 62 H 9.433748 5.095833 -14.570637 0
M  V30 63 H 9.610762 8.762061 -12.042865 0
M  V30 64 H 7.979682 6.428512 -8.325759 0
M  V30 END ATOM
M  V30 BEGIN BOND
M  V30 1 1 6 1
M  V30 2 1 13 12
M  V30 3 1 15 10
M  V30 4 1 15 13
M  V30 5 1 15 14
M  V30 6 1 17 8
M  V30 7 1 18 4
M  V30 8 1 19 17
M  V30 9 2 20 18
M  V30 10 1 21 5
M  V30 11 1 21 18
M  V30 12 1 22 1
M  V30 13 1 22 11
M  V30 14 2 23 2
M  V30 15 1 23 7
M  V30 16 1 24 7
M  V30 17 1 24 10
M  V30 18 1 25 8
M  V30 19 1 25 13
M  V30 20 1 26 3
M  V30 21 1 26 17
M  V30 22 2 26 21
M  V30 23 1 27 23
M  V30 24 1 28 9
M  V30 25 1 28 12
M  V30 26 1 29 2
M  V30 27 1 29 12
M  V30 28 1 29 24
M  V30 29 2 30 10
M  V30 30 2 31 1
M  V30 31 1 31 16
M  V30 32 1 31 20
M  V30 33 1 32 8
M  V30 34 1 32 9
M  V30 35 1 33 15
M  V30 36 2 34 3
M  V30 37 1 34 20
M  V30 38 1 35 4
M  V30 39 1 35 6
M  V30 40 1 36 3
M  V30 41 1 37 4
M  V30 42 1 38 4
M  V30 43 1 39 5
M  V30 44 1 40 6
M  V30 45 1 41 6
M  V30 46 1 8 42 CFG=3
M  V30 47 1 43 9
M  V30 48 1 44 9
M  V30 49 1 12 45 CFG=3
M  V30 50 1 13 46 CFG=3
M  V30 51 1 17 47 CFG=1
M  V30 52 1 48 19
M  V30 53 1 49 19
M  V30 54 1 50 19
M  V30 55 1 24 51 CFG=1
M  V30 56 1 52 25
M  V30 57 1 53 25
M  V30 58 1 54 27
M  V30 59 1 55 27
M  V30 60 1 56 27
M  V30 61 1 57 28
M  V30 62 1 58 28
M  V30 63 1 59 30
M  V30 64 1 60 30
M  V30 65 1 61 32
M  V30 66 1 62 32
M  V30 67 1 63 34
M  V30 68 1 64 35
M  V30 END BOND
M  V30 END CTAB
M  END
>  <i_epik_Tot_Q>  (1) 
0

>  <i_epik_Tot_abs_Q>  (1) 
0

>  <i_i_glide_confnum>  (1) 
4

>  <i_i_glide_lignum>  (1) 
168

>  <i_i_glide_posenum>  (1) 
128

>  <i_i_glide_rotatable_bonds>  (1) 
4

>  <i_lp_mmshare_version>  (1) 
72125

>  <i_m_source_file_index>  (1) 
83

>  <i_f3d_flags>  (1) 
0

>  <num_sample>  (1) 
100

>  <b_lp_Chiralities_Consistent>  (1) 
1

>  <r_epik_Charging_Adjusted_Penalty>  (1) 
0.046558445642634526

>  <r_epik_Ionization_Penalty>  (1) 
0.046507495434493687

>  <r_epik_Ionization_Penalty_Charging>  (1) 
0

>  <r_epik_Ionization_Penalty_Neutral>  (1) 
0.046507495434493687

>  <r_epik_State_Penalty>  (1) 
0.046558445642634526

>  <r_glide_ring_energy>  (1) 
0

>  <r_i_docking_score>  (1) 
-3.8248771809150526

>  <r_i_glide_ecoul>  (1) 
-2.2701937799028529

>  <r_i_glide_eff_state_penalty>  (1) 
0.046558445642634526

>  <r_i_glide_einternal>  (1) 
1.6824450964634892

>  <r_i_glide_emodel>  (1) 
-35.385895437391468

>  <r_i_glide_emodel_strain>  (1) 
0

>  <r_i_glide_energy>  (1) 
-29.140431809082134

>  <r_i_glide_erotb>  (1) 
0.1660487774470758

>  <r_i_glide_esite>  (1) 
0

>  <r_i_glide_evdw>  (1) 
-26.87023802917928

>  <r_i_glide_gscore>  (1) 
-3.871435626557687

>  <r_i_glide_gscore_strain>  (1) 
0

>  <r_i_glide_hbond>  (1) 
-0.23454799206555468

>  <r_i_glide_ligand_efficiency>  (1) 
-0.1092822051690015

>  <r_i_glide_ligand_efficiency_ln>  (1) 
-0.83964542978620904

>  <r_i_glide_ligand_efficiency_sa>  (1) 
-0.35746933963143823

>  <r_i_glide_lipo>  (1) 
-1.0249042419947414

>  <r_i_glide_metal>  (1) 
-0

>  <r_i_glide_rewards>  (1) 
-1.0939912015000748

>  <r_lp_Energy>  (1) 
56.444668

>  <r_lp_tautomer_probability>  (1) 
0.99999999486000002

>  <s_epik_Chemistry_Notes>  (1) 
This compound has an imine and may undergo hydrolysis. This compound contains an acetal/aminal-like group ( X-CH(R)-Y where X, Y are N, S, or O) that may be acid/base labile, releasing an aldehyde.

>  <s_epik_cmdline>  (1) 
J2VwaWtfcHl0aG9uJywgJy1waHQnLCAnMS4wJywgJy1waCcsICc3LjQnLCAnLXRuJywgJzgnLCAnLW1hJywgJzUwMCcsICctaW1hZScsICc8aW5maWxlLm1hZT4nLCAnLW9tYWUnLCAnPG91dGZpbGUubWFlPic=

>  <s_epik_input>  (1) 
W0NIMl0xW05IXVtDSDJdQyhPRik9QyhGKWMoYzEyKVtjSF1bY0hdYyhjMltPSF0pW0NASF0oW0NIM10pW0NAQEhdKFtDSDJdW0NIMl1bQ0gyXTMpW0NIMl1bQ0BASF0oW0NAQEhdMzQpQyhGKShGKUMoPVtDSDJdKVtDQEBIXTVONE49QyhPNSlbQ0gzXQ==

>  <s_glide_docking_method>  (1) 
confgen

>  <s_i_glide_gridfile>  (1) 
gpcr_drd2_6luq_protein_autoprepared_prepared

>  <s_lp_Force_Field>  (1) 
S-OPLS

>  <s_lp_Variant>  (1) 
DiffSBDD_82_num_sample_100-2

>  <s_m_source_file>  (1) 
generated__ligand_DiffSBDD_2026-05-06_prepared.sdf

>  <GenAI_Model>  (1) 
DiffSBDD

>  <Protein>  (1) 
generic_title2

$$$$
DiffSBDD_39_num_sample_100
     RDKit          3D

  0  0  0  0  0  0  0  0  0  0999 V3000
M  V30 BEGIN CTAB
M  V30 COUNTS 66 70 0 0 1
M  V30 BEGIN ATOM
M  V30 1 C 6.764919 4.719209 -20.034278 0 CFG=2
M  V30 2 N 9.051092 8.026795 -11.091574 0
M  V30 3 C 8.572978 5.723871 -11.762582 0
M  V30 4 C 7.035129 4.160724 -15.516775 0
M  V30 5 C 9.748631 1.053383 -19.054259 0 CFG=2
M  V30 6 C 9.272432 5.255371 -10.635181 0
M  V30 7 C 10.657367 1.713158 -20.069761 0
M  V30 8 C 6.073247 2.155752 -18.411564 0
M  V30 9 C 6.240664 6.635771 -14.630919 0 CFG=2
M  V30 10 C 6.935068 5.564187 -17.593973 0
M  V30 11 N 7.708457 7.765559 -12.964619 0
M  V30 12 C 6.233730 6.510876 -17.043052 0
M  V30 13 C 7.642641 7.109918 -14.247724 0
M  V30 14 O 10.267964 0.342788 -20.189168 0
M  V30 15 C 7.330108 5.755496 -19.056439 0
M  V30 16 C 7.557308 3.399354 -20.047866 0
M  V30 17 C 9.709594 7.545947 -10.018656 0
M  V30 18 C 9.834853 6.179052 -9.746368 0
M  V30 19 C 8.217427 1.171734 -19.079379 0
M  V30 20 C 9.708563 -0.860823 -17.340623 0
M  V30 21 O 6.870865 5.265814 -21.334720 0
M  V30 22 C 7.369380 4.360833 -16.848433 0
M  V30 23 C 8.206642 3.289305 -17.566130 0
M  V30 24 C 7.528528 2.539418 -18.758587 0 CFG=2
M  V30 25 C 10.302149 0.502760 -17.743727 0
M  V30 26 C 6.471971 4.730123 -13.090404 0
M  V30 27 C 7.971085 4.698649 -12.731038 0
M  V30 28 N 10.281298 8.478213 -9.160074 0
M  V30 29 C 8.459475 7.156443 -11.937434 0
M  V30 30 C 6.186853 5.094534 -14.567808 0 CFG=2
M  V30 31 C 5.895283 7.169121 -15.984923 0
M  V30 32 H 5.704643 4.553169 -19.850608 0
M  V30 33 H 7.382447 3.251012 -15.048709 0
M  V30 34 H 9.373454 4.195285 -10.453416 0
M  V30 35 H 10.252960 2.345373 -20.854986 0
M  V30 36 H 11.706608 1.864078 -19.818682 0
M  V30 37 H 5.622445 1.538024 -19.189059 0
M  V30 38 H 6.024600 1.585794 -17.483557 0
M  V30 39 H 5.433335 3.018512 -18.291680 0
M  V30 40 H 5.496972 7.053738 -13.950672 0
M  V30 41 H 8.441873 6.412379 -14.475872 0
M  V30 42 H 7.834693 7.953882 -14.899422 0
M  V30 43 H 8.417761 5.778228 -19.118009 0
M  V30 44 H 7.014446 6.750251 -19.384426 0
M  V30 45 H 7.189079 2.797447 -20.881479 0
M  V30 46 H 8.591113 3.635841 -20.289531 0
M  V30 47 H 10.370773 5.840722 -8.873174 0
M  V30 48 H 7.810754 0.420746 -18.407853 0
M  V30 49 H 7.880153 0.824195 -20.057059 0
M  V30 50 H 10.376043 -1.430938 -16.695399 0
M  V30 51 H 8.773056 -0.741924 -16.793304 0
M  V30 52 H 9.494772 -1.464721 -18.220854 0
M  V30 53 H 7.778889 5.460209 -21.512099 0
M  V30 54 H 9.151812 3.732711 -17.881686 0
M  V30 55 H 8.472934 2.551033 -16.813171 0
M  V30 56 H 11.381723 0.387168 -17.855482 0
M  V30 57 H 10.169016 1.235273 -16.952969 0
M  V30 58 H 6.070019 3.729416 -12.924379 0
M  V30 59 H 5.926838 5.368525 -12.393818 0
M  V30 60 H 8.638735 4.595214 -13.583511 0
M  V30 61 H 8.108839 3.733960 -12.242877 0
M  V30 62 H 10.724864 8.194712 -8.300557 0
M  V30 63 H 5.141048 4.841641 -14.694140 0
M  V30 64 H 5.481840 8.166380 -16.038748 0
M  V30 65 H 10.132704 9.465417 -9.293774 0
M  V30 66 H 7.720506 8.773200 -12.980414 0
M  V30 END ATOM
M  V30 BEGIN BOND
M  V30 1 1 6 3
M  V30 2 1 7 5
M  V30 3 2 12 10
M  V30 4 1 13 9
M  V30 5 1 13 11
M  V30 6 1 14 5
M  V30 7 1 14 7
M  V30 8 1 15 1
M  V30 9 1 15 10
M  V30 10 1 16 1
M  V30 11 2 17 2
M  V30 12 2 18 6
M  V30 13 1 18 17
M  V30 14 1 5 19 CFG=1
M  V30 15 1 21 1
M  V30 16 2 22 4
M  V30 17 1 22 10
M  V30 18 1 23 22
M  V30 19 1 24 8 CFG=1
M  V30 20 1 24 16
M  V30 21 1 24 19
M  V30 22 1 24 23
M  V30 23 1 25 5
M  V30 24 1 25 20
M  V30 25 1 27 3
M  V30 26 1 27 26
M  V30 27 1 28 17
M  V30 28 1 29 2
M  V30 29 2 29 3
M  V30 30 1 29 11
M  V30 31 1 30 4
M  V30 32 1 30 9
M  V30 33 1 30 26
M  V30 34 1 31 9
M  V30 35 2 31 12
M  V30 36 1 1 32 CFG=1
M  V30 37 1 33 4
M  V30 38 1 34 6
M  V30 39 1 35 7
M  V30 40 1 36 7
M  V30 41 1 37 8
M  V30 42 1 38 8
M  V30 43 1 39 8
M  V30 44 1 9 40 CFG=1
M  V30 45 1 41 13
M  V30 46 1 42 13
M  V30 47 1 43 15
M  V30 48 1 44 15
M  V30 49 1 45 16
M  V30 50 1 46 16
M  V30 51 1 47 18
M  V30 52 1 48 19
M  V30 53 1 49 19
M  V30 54 1 50 20
M  V30 55 1 51 20
M  V30 56 1 52 20
M  V30 57 1 53 21
M  V30 58 1 54 23
M  V30 59 1 55 23
M  V30 60 1 56 25
M  V30 61 1 57 25
M  V30 62 1 58 26
M  V30 63 1 59 26
M  V30 64 1 60 27
M  V30 65 1 61 27
M  V30 66 1 62 28
M  V30 67 1 30 63 CFG=3
M  V30 68 1 64 31
M  V30 69 1 65 28
M  V30 70 1 66 11
M  V30 END BOND
M  V30 END CTAB
M  END
>  <i_epik_Tot_Q>  (1) 
0

>  <i_epik_Tot_abs_Q>  (1) 
0

>  <i_i_glide_confnum>  (1) 
10

>  <i_i_glide_lignum>  (1) 
69

>  <i_i_glide_posenum>  (1) 
278

>  <i_i_glide_rotatable_bonds>  (1) 
4

>  <i_lp_mmshare_version>  (1) 
72125

>  <i_m_source_file_index>  (1) 
40

>  <i_f3d_flags>  (1) 
0

>  <num_sample>  (1) 
100

>  <b_lp_Chiralities_Consistent>  (1) 
1

>  <r_epik_Charging_Adjusted_Penalty>  (1) 
0

>  <r_epik_Ionization_Penalty>  (1) 
0.1664306043943147

>  <r_epik_Ionization_Penalty_Charging>  (1) 
0

>  <r_epik_Ionization_Penalty_Neutral>  (1) 
0.1664306043943147

>  <r_epik_State_Penalty>  (1) 
-0

>  <r_glide_ring_energy>  (1) 
0

>  <r_i_docking_score>  (1) 
-3.8237746298778741

>  <r_i_glide_ecoul>  (1) 
0.67691401118063133

>  <r_i_glide_eff_state_penalty>  (1) 
-0

>  <r_i_glide_einternal>  (1) 
0.34265605498178431

>  <r_i_glide_emodel>  (1) 
-24.268622137107513

>  <r_i_glide_emodel_strain>  (1) 
1.4954496506012163

>  <r_i_glide_energy>  (1) 
-20.671501753128755

>  <r_i_glide_erotb>  (1) 
0.22283361910969357

>  <r_i_glide_esite>  (1) 
-0.089626957951933386

>  <r_i_glide_evdw>  (1) 
-21.348415764309387

>  <r_i_glide_gscore>  (1) 
-3.8237746298778741

>  <r_i_glide_gscore_strain>  (1) 
0

>  <r_i_glide_hbond>  (1) 
0

>  <r_i_glide_ligand_efficiency>  (1) 
-0.12334756870573788

>  <r_i_glide_ligand_efficiency_ln>  (1) 
-0.86237836365652587

>  <r_i_glide_ligand_efficiency_sa>  (1) 
-0.38748166585172306

>  <r_i_glide_lipo>  (1) 
-2.0314459837943093

>  <r_i_glide_metal>  (1) 
-0

>  <r_i_glide_rewards>  (1) 
-0.95965162070295063

>  <r_lp_Energy>  (1) 
40.513892999999996

>  <r_lp_tautomer_probability>  (1) 
1

>  <s_epik_cmdline>  (1) 
J2VwaWtfcHl0aG9uJywgJy1waHQnLCAnMS4wJywgJy1waCcsICc3LjQnLCAnLXRuJywgJzgnLCAnLW1hJywgJzUwMCcsICctaW1hZScsICc8aW5maWxlLm1hZT4nLCAnLW9tYWUnLCAnPG91dGZpbGUubWFlPic=

>  <s_epik_input>  (1) 
TzFbQ0gyXVtDQEBdMShbQ0gyXVtDSDNdKVtDSDJdW0NAQF0oW0NIM10pKFtDSDJdMilbQ0gyXVtDQEhdKFtPSF0pW0NIMl1DKD1DPVtDSF0zKUMyPVtDSF1bQ0BASF0oW0NIMl1bQ0gyXTQpW0NASF0zW0NIMl1bTkhdQyhbQ0BIXTQ1KT1OL0MoPU4vW0hdKVtDSF09W0NIXTU=

>  <s_glide_docking_method>  (1) 
confgen

>  <s_i_glide_gridfile>  (1) 
gpcr_drd2_6luq_protein_autoprepared_prepared

>  <s_lp_Force_Field>  (1) 
S-OPLS

>  <s_lp_Variant>  (1) 
DiffSBDD_39_num_sample_100-1

>  <s_m_source_file>  (1) 
generated__ligand_DiffSBDD_2026-05-06_prepared.sdf

>  <GenAI_Model>  (1) 
DiffSBDD

>  <Protein>  (1) 
generic_title2

$$$$
DiffSBDD_45_num_sample_100
     RDKit          3D

  0  0  0  0  0  0  0  0  0  0999 V3000
M  V30 BEGIN CTAB
M  V30 COUNTS 63 65 0 0 1
M  V30 BEGIN ATOM
M  V30 1 C 6.243550 5.776148 -12.362196 0
M  V30 2 C 11.859298 4.447527 -19.824475 0
M  V30 3 C 7.116775 4.757886 -11.613829 0
M  V30 4 C 13.858875 4.454902 -16.541475 0 CFG=2
M  V30 5 C 13.446993 4.152454 -17.997123 0 CFG=1
M  V30 6 C 13.664378 6.905043 -16.182614 0
M  V30 7 C 6.740754 5.768380 -16.986424 0
M  V30 8 C 7.593065 5.517011 -14.525327 0 CFG=1
M  V30 9 O 6.201616 6.815425 -16.622377 0
M  V30 10 N 12.349455 4.965908 -18.544036 0
M  V30 11 Cl 14.856553 4.270044 -19.101630 0
M  V30 12 C 8.822134 4.074828 -18.662388 0 CFG=1
M  V30 13 C 6.599050 2.729311 -18.341708 0
M  V30 14 C 8.406967 4.469250 -12.357102 0
M  V30 15 C 9.431024 5.333577 -19.338408 0
M  V30 16 N 14.533902 5.741458 -16.374499 0
M  V30 17 C 9.339177 3.879532 -17.230661 0
M  V30 18 C 10.557424 5.076878 -20.362572 0
M  V30 19 C 8.622211 4.805692 -13.641892 0
M  V30 20 C 12.627396 6.404255 -18.529785 0
M  V30 21 C 7.274561 4.056404 -18.751484 0 CFG=1
M  V30 22 C 7.612201 4.960395 -15.983569 0 CFG=2
M  V30 23 F 14.706000 3.505363 -16.146845 0
M  V30 24 O 8.970321 4.970453 -16.406574 0
M  V30 25 C 6.187098 5.460617 -13.863983 0
M  V30 26 C 12.458725 6.998034 -17.125597 0
M  V30 27 N 6.593601 5.280825 -18.253675 0
M  V30 28 C 5.752291 5.993158 -19.224128 0
M  V30 29 H 6.650570 6.778709 -12.220036 0
M  V30 30 H 5.241348 5.791933 -11.933369 0
M  V30 31 H 11.677581 3.377641 -19.715114 0
M  V30 32 H 12.628989 4.540193 -20.591098 0
M  V30 33 H 6.579250 3.818219 -11.484846 0
M  V30 34 H 7.347879 5.134444 -10.616191 0
M  V30 35 H 12.989485 4.377527 -15.891091 0
M  V30 36 H 13.137567 3.106684 -18.019512 0
M  V30 37 H 14.246518 7.814330 -16.305281 0
M  V30 38 H 13.301829 6.926571 -15.153955 0
M  V30 39 H 7.910931 6.560041 -14.556614 0
M  V30 40 H 9.164725 3.207339 -19.228417 0
M  V30 41 H 7.058260 1.890227 -18.865577 0
M  V30 42 H 6.655306 2.499345 -17.281693 0
M  V30 43 H 5.545460 2.731426 -18.622470 0
M  V30 44 H 9.183232 3.963495 -11.800306 0
M  V30 45 H 8.652094 5.864178 -19.885161 0
M  V30 46 H 9.760502 6.047953 -18.583934 0
M  V30 47 H 15.162773 5.675910 -15.580233 0
M  V30 48 H 10.424403 3.817876 -17.228683 0
M  V30 49 H 9.002594 2.932381 -16.807006 0
M  V30 50 H 10.172224 4.445982 -21.164348 0
M  V30 51 H 10.800800 6.024128 -20.844123 0
M  V30 52 H 9.572843 4.569794 -14.097912 0
M  V30 53 H 13.607074 6.636197 -18.947824 0
M  V30 54 H 11.913725 6.925798 -19.164824 0
M  V30 55 H 7.115295 4.066597 -19.830825 0
M  V30 56 H 7.230628 3.947187 -15.901336 0
M  V30 57 H 5.499182 6.158956 -14.337846 0
M  V30 58 H 5.755079 4.468234 -13.999658 0
M  V30 59 H 12.234839 8.059335 -17.228677 0
M  V30 60 H 11.583031 6.552445 -16.650021 0
M  V30 61 H 4.898707 6.481849 -18.751082 0
M  V30 62 H 6.335679 6.759532 -19.735209 0
M  V30 63 H 5.338476 5.321704 -19.977022 0
M  V30 END ATOM
M  V30 BEGIN BOND
M  V30 1 1 3 1
M  V30 2 1 5 4
M  V30 3 2 9 7
M  V30 4 1 10 2
M  V30 5 1 10 5
M  V30 6 1 11 5
M  V30 7 1 14 3
M  V30 8 1 15 12
M  V30 9 1 16 4
M  V30 10 1 16 6
M  V30 11 1 17 12
M  V30 12 1 18 2
M  V30 13 1 18 15
M  V30 14 1 19 8
M  V30 15 2 19 14
M  V30 16 1 20 10
M  V30 17 1 21 12
M  V30 18 1 21 13
M  V30 19 1 22 7
M  V30 20 1 22 8
M  V30 21 1 23 4
M  V30 22 1 24 17
M  V30 23 1 24 22
M  V30 24 1 25 1
M  V30 25 1 25 8
M  V30 26 1 26 6
M  V30 27 1 26 20
M  V30 28 1 27 7
M  V30 29 1 27 21
M  V30 30 1 28 27
M  V30 31 1 29 1
M  V30 32 1 30 1
M  V30 33 1 31 2
M  V30 34 1 32 2
M  V30 35 1 33 3
M  V30 36 1 34 3
M  V30 37 1 4 35 CFG=1
M  V30 38 1 5 36 CFG=1
M  V30 39 1 37 6
M  V30 40 1 38 6
M  V30 41 1 8 39 CFG=3
M  V30 42 1 12 40 CFG=3
M  V30 43 1 41 13
M  V30 44 1 42 13
M  V30 45 1 43 13
M  V30 46 1 44 14
M  V30 47 1 45 15
M  V30 48 1 46 15
M  V30 49 1 47 16
M  V30 50 1 48 17
M  V30 51 1 49 17
M  V30 52 1 50 18
M  V30 53 1 51 18
M  V30 54 1 52 19
M  V30 55 1 53 20
M  V30 56 1 54 20
M  V30 57 1 21 55 CFG=3
M  V30 58 1 22 56 CFG=1
M  V30 59 1 57 25
M  V30 60 1 58 25
M  V30 61 1 59 26
M  V30 62 1 60 26
M  V30 63 1 61 28
M  V30 64 1 62 28
M  V30 65 1 63 28
M  V30 END BOND
M  V30 END CTAB
M  END
>  <i_epik_Tot_Q>  (1) 
0

>  <i_epik_Tot_abs_Q>  (1) 
0

>  <i_i_glide_confnum>  (1) 
294

>  <i_i_glide_lignum>  (1) 
83

>  <i_i_glide_posenum>  (1) 
264

>  <i_i_glide_rotatable_bonds>  (1) 
5

>  <i_lp_mmshare_version>  (1) 
72125

>  <i_m_source_file_index>  (1) 
46

>  <i_f3d_flags>  (1) 
0

>  <num_sample>  (1) 
100

>  <b_lp_Chiralities_Consistent>  (1) 
1

>  <r_epik_Charging_Adjusted_Penalty>  (1) 
0.015133208647659156

>  <r_epik_Ionization_Penalty>  (1) 
0.015206278080010002

>  <r_epik_Ionization_Penalty_Charging>  (1) 
0

>  <r_epik_Ionization_Penalty_Neutral>  (1) 
0.015206278080010002

>  <r_epik_State_Penalty>  (1) 
0.015133208647659156

>  <r_glide_ring_energy>  (1) 
0.92753117685040032

>  <r_i_docking_score>  (1) 
-3.8223150179620848

>  <r_i_glide_ecoul>  (1) 
-2.1260105933481648

>  <r_i_glide_eff_state_penalty>  (1) 
0.015133208647659156

>  <r_i_glide_einternal>  (1) 
4.940929398661881

>  <r_i_glide_emodel>  (1) 
-29.917894397342195

>  <r_i_glide_emodel_strain>  (1) 
0.63259082411219936

>  <r_i_glide_energy>  (1) 
-27.833943694403889

>  <r_i_glide_erotb>  (1) 
0.45657733151366331

>  <r_i_glide_esite>  (1) 
0

>  <r_i_glide_evdw>  (1) 
-25.707933101055723

>  <r_i_glide_gscore>  (1) 
-3.8374482266097441

>  <r_i_glide_gscore_strain>  (1) 
0

>  <r_i_glide_hbond>  (1) 
0

>  <r_i_glide_ligand_efficiency>  (1) 
-0.13651125064150302

>  <r_i_glide_ligand_efficiency_ln>  (1) 
-0.88230253419118976

>  <r_i_glide_ligand_efficiency_sa>  (1) 
-0.41452855823494261

>  <r_i_glide_lipo>  (1) 
-1.3475290053910811

>  <r_i_glide_metal>  (1) 
-0

>  <r_i_glide_rewards>  (1) 
-1.3421983086773153

>  <r_lp_Energy>  (1) 
28.740504999999999

>  <s_epik_cmdline>  (1) 
J2VwaWtfcHl0aG9uJywgJy1waHQnLCAnMS4wJywgJy1waCcsICc3LjQnLCAnLXRuJywgJzgnLCAnLW1hJywgJzUwMCcsICctaW1hZScsICc8aW5maWxlLm1hZT4nLCAnLW9tYWUnLCAnPG91dGZpbGUubWFlPic=

>  <s_epik_input>  (1) 
W0NIMl0xW0NIMl1bQ0gyXVtDSF09W0NIXVtDQEhdMVtDQEBIXShDMj1PKU9bQ0gyXVtDQEBIXShbQ0BASF0oW0NIM10pTjJbQ0gzXSlbQ0gyXVtDSDJdW0NIMl1OKFtDQEBIXShDbClbQ0BASF0zRilbQ0gyXVtDSDJdW0NIMl1bTkhdMw==

>  <s_glide_docking_method>  (1) 
confgen

>  <s_i_glide_gridfile>  (1) 
gpcr_drd2_6luq_protein_autoprepared_prepared

>  <s_lp_Force_Field>  (1) 
S-OPLS

>  <s_lp_Variant>  (1) 
DiffSBDD_45_num_sample_100-2

>  <s_m_source_file>  (1) 
generated__ligand_DiffSBDD_2026-05-06_prepared.sdf

>  <GenAI_Model>  (1) 
DiffSBDD

>  <Protein>  (1) 
generic_title2

$$$$
DiffSBDD_15_num_sample_100
     RDKit          3D

  0  0  0  0  0  0  0  0  0  0999 V3000
M  V30 BEGIN CTAB
M  V30 COUNTS 48 51 0 0 1
M  V30 BEGIN ATOM
M  V30 1 C 9.880771 6.346483 -11.835413 0
M  V30 2 C 9.478772 6.484670 -7.241488 0
M  V30 3 C 10.707930 7.674351 -9.926654 0
M  V30 4 C 9.496673 4.713079 -16.873202 0
M  V30 5 C 8.216602 4.595356 -11.672912 0
M  V30 6 C 9.093570 5.360975 -12.452693 0
M  V30 7 C 10.782444 7.143651 -7.462748 0
M  V30 8 C 9.205200 5.148624 -13.916350 0
M  V30 9 C 10.486727 3.716823 -17.504545 0
M  V30 10 C 11.087481 7.940258 -8.671516 0
M  V30 11 C 8.017058 0.748239 -17.914383 0
M  V30 12 C 8.132874 4.800993 -10.291667 0
M  V30 13 C 9.740503 2.554388 -18.200153 0 CFG=2
M  V30 14 C 9.834840 6.571975 -10.434285 0
M  V30 15 C 8.719214 5.878982 -8.159784 0
M  V30 16 F 11.436844 2.093004 -19.735682 0
M  V30 17 C 8.754308 1.894405 -17.213623 0 CFG=1
M  V30 18 N 8.569095 4.006955 -15.986136 0
M  V30 19 C 9.028404 -0.225357 -18.538002 0
M  V30 20 C 8.486075 4.239214 -14.611529 0
M  V30 21 F 11.487623 0.990694 -17.891087 0
M  V30 22 C 8.933407 5.762763 -9.633662 0
M  V30 23 O 9.884162 0.474337 -19.437576 0
M  V30 24 C 10.675464 1.490618 -18.822934 0
M  V30 25 C 7.799437 2.947066 -16.625503 0
M  V30 26 H 10.544687 6.943125 -12.442980 0
M  V30 27 H 9.147919 6.456282 -6.212846 0
M  V30 28 H 11.079966 8.338264 -10.691589 0
M  V30 29 H 8.912320 5.191427 -17.659651 0
M  V30 30 H 10.048530 5.516275 -16.394271 0
M  V30 31 H 7.598122 3.841920 -12.128952 0
M  V30 32 H 10.885269 7.842899 -6.632703 0
M  V30 33 H 11.570544 6.405407 -7.318905 0
M  V30 34 H 9.915218 5.769277 -14.431335 0
M  V30 35 H 11.124658 4.237867 -18.218595 0
M  V30 36 H 11.148288 3.329455 -16.729170 0
M  V30 37 H 11.730935 8.792305 -8.507169 0
M  V30 38 H 7.362884 1.143190 -18.693057 0
M  V30 39 H 7.378348 0.220434 -17.205150 0
M  V30 40 H 7.442499 4.203093 -9.713645 0
M  V30 41 H 9.159010 2.986438 -19.015941 0
M  V30 42 H 7.821690 5.399095 -7.799854 0
M  V30 43 H 9.324101 1.465830 -16.387939 0
M  V30 44 H 8.503649 -1.004743 -19.090457 0
M  V30 45 H 9.615386 -0.728486 -17.767680 0
M  V30 46 H 7.768160 3.601370 -14.124298 0
M  V30 47 H 7.121566 2.478120 -15.911181 0
M  V30 48 H 7.178200 3.379443 -17.410385 0
M  V30 END ATOM
M  V30 BEGIN BOND
M  V30 1 2 6 1
M  V30 2 1 6 5
M  V30 3 1 7 2
M  V30 4 1 8 6
M  V30 5 1 9 4
M  V30 6 2 10 3
M  V30 7 1 10 7
M  V30 8 2 12 5
M  V30 9 1 13 9
M  V30 10 1 14 1
M  V30 11 1 14 3
M  V30 12 2 15 2
M  V30 13 1 17 11
M  V30 14 1 17 13
M  V30 15 1 18 4
M  V30 16 1 19 11
M  V30 17 2 20 8
M  V30 18 1 20 18
M  V30 19 1 22 12
M  V30 20 2 22 14
M  V30 21 1 22 15
M  V30 22 1 23 19
M  V30 23 1 24 13
M  V30 24 1 24 16
M  V30 25 1 24 21
M  V30 26 1 24 23
M  V30 27 1 25 17
M  V30 28 1 25 18
M  V30 29 1 26 1
M  V30 30 1 27 2
M  V30 31 1 28 3
M  V30 32 1 29 4
M  V30 33 1 30 4
M  V30 34 1 31 5
M  V30 35 1 32 7
M  V30 36 1 33 7
M  V30 37 1 34 8
M  V30 38 1 35 9
M  V30 39 1 36 9
M  V30 40 1 37 10
M  V30 41 1 38 11
M  V30 42 1 39 11
M  V30 43 1 40 12
M  V30 44 1 13 41 CFG=3
M  V30 45 1 42 15
M  V30 46 1 17 43 CFG=1
M  V30 47 1 44 19
M  V30 48 1 45 19
M  V30 49 1 46 20
M  V30 50 1 47 25
M  V30 51 1 48 25
M  V30 END BOND
M  V30 END CTAB
M  END
>  <i_epik_Tot_Q>  (1) 
0

>  <i_epik_Tot_abs_Q>  (1) 
0

>  <i_i_glide_confnum>  (1) 
4

>  <i_i_glide_lignum>  (1) 
24

>  <i_i_glide_posenum>  (1) 
316

>  <i_i_glide_rotatable_bonds>  (1) 
2

>  <i_lp_mmshare_version>  (1) 
72125

>  <i_m_source_file_index>  (1) 
16

>  <i_f3d_flags>  (1) 
0

>  <num_sample>  (1) 
100

>  <b_lp_Chiralities_Consistent>  (1) 
1

>  <r_epik_Charging_Adjusted_Penalty>  (1) 
0.41067983895260396

>  <r_epik_Ionization_Penalty>  (1) 
0.00043588865487499098

>  <r_epik_Ionization_Penalty_Charging>  (1) 
0

>  <r_epik_Ionization_Penalty_Neutral>  (1) 
0.00043588865487499098

>  <r_epik_State_Penalty>  (1) 
0.41067983895260396

>  <r_glide_ring_energy>  (1) 
0

>  <r_i_docking_score>  (1) 
-3.7855797962083071

>  <r_i_glide_ecoul>  (1) 
0.50884525711463857

>  <r_i_glide_eff_state_penalty>  (1) 
0.41067983895260396

>  <r_i_glide_einternal>  (1) 
1.6027865360667586

>  <r_i_glide_emodel>  (1) 
-31.570801194578728

>  <r_i_glide_emodel_strain>  (1) 
0

>  <r_i_glide_energy>  (1) 
-26.139055238687774

>  <r_i_glide_erotb>  (1) 
0.32177656458331499

>  <r_i_glide_esite>  (1) 
0

>  <r_i_glide_evdw>  (1) 
-26.647900495802414

>  <r_i_glide_gscore>  (1) 
-4.1962596351609109

>  <r_i_glide_gscore_strain>  (1) 
0

>  <r_i_glide_hbond>  (1) 
0

>  <r_i_glide_ligand_efficiency>  (1) 
-0.15142319184833228

>  <r_i_glide_ligand_efficiency_ln>  (1) 
-0.89729585637343801

>  <r_i_glide_ligand_efficiency_sa>  (1) 
-0.44276409894133351

>  <r_i_glide_lipo>  (1) 
-1.1749015371584606

>  <r_i_glide_metal>  (1) 
-0

>  <r_i_glide_rewards>  (1) 
-2.0870664263628402

>  <r_lp_Energy>  (1) 
29.411313

>  <r_lp_tautomer_probability>  (1) 
0.5

>  <s_epik_cmdline>  (1) 
J2VwaWtfcHl0aG9uJywgJy1waHQnLCAnMS4wJywgJy1waCcsICc3LjQnLCAnLXRuJywgJzgnLCAnLW1hJywgJzUwMCcsICctaW1hZScsICc8aW5maWxlLm1hZT4nLCAnLW9tYWUnLCAnPG91dGZpbGUubWFlPic=

>  <s_epik_input>  (1) 
W0NIXTE9W0NIXVtDSDJdW0NIXT1bQ0hdYyhjMTIpW2NIXVtjSF1jKFtjSF0yKS9bQ0hdPVtDSF0vTihbQ0gyXVtDSDJdMylbQ0gyXVtDQEhdKFtDQEBIXTM0KVtDSDJdW0NIMl1PQzQoRilG

>  <s_glide_docking_method>  (1) 
confgen

>  <s_i_glide_gridfile>  (1) 
gpcr_drd2_6luq_protein_autoprepared_prepared

>  <s_lp_Force_Field>  (1) 
S-OPLS

>  <s_lp_Variant>  (1) 
DiffSBDD_15_num_sample_100-1

>  <s_m_source_file>  (1) 
generated__ligand_DiffSBDD_2026-05-06_prepared.sdf

>  <GenAI_Model>  (1) 
DiffSBDD

>  <Protein>  (1) 
generic_title2

$$$$
DiffSBDD_23_num_sample_100
     RDKit          3D

  0  0  0  0  0  0  0  0  0  0999 V3000
M  V30 BEGIN CTAB
M  V30 COUNTS 71 73 0 0 1
M  V30 BEGIN ATOM
M  V30 1 C 8.925081 6.072420 -10.119180 0 CFG=1
M  V30 2 C 8.626563 5.252379 -13.881696 0
M  V30 3 O 6.711210 2.774389 -19.634063 0
M  V30 4 C 7.364155 3.060638 -16.946676 0
M  V30 5 N 7.423239 1.797195 -17.688999 0
M  V30 6 O 10.766125 -0.630676 -17.491700 0
M  V30 7 C 8.469784 5.268723 -16.333773 0
M  V30 8 C 7.046002 1.759004 -19.016502 0
M  V30 9 C 7.979833 0.775920 -21.935809 0
M  V30 10 C 5.538492 6.157288 -11.284417 0
M  V30 11 N 7.088970 0.518000 -19.617266 0
M  V30 12 C 9.838015 -0.230809 -18.225697 0
M  V30 13 C 7.843936 0.626835 -16.905177 0 CFG=1
M  V30 14 O 9.976481 0.375264 -19.309428 0 CHG=-1
M  V30 15 C 5.668050 5.272137 -13.836878 0
M  V30 16 C 9.485391 6.590864 -7.683137 0 CFG=1
M  V30 17 O 10.180169 6.169297 -6.535085 0
M  V30 18 C 9.526938 7.447595 -10.549855 0
M  V30 19 O 6.807948 0.176037 -16.048126 0
M  V30 20 O 9.834835 5.090693 -13.963972 0
M  V30 21 N 11.125575 9.378299 -6.283074 0
M  V30 22 N 7.832370 5.291580 -14.998905 0
M  V30 23 C 6.789668 0.368289 -21.052621 0
M  V30 24 S 6.321297 4.902637 -12.264540 0 CHG=1
M  V30 25 C 10.629854 8.745785 -7.117095 0
M  V30 26 C 8.910430 5.063203 -11.291033 0
M  V30 27 C 8.395857 -0.514910 -17.745426 0 CFG=1
M  V30 28 C 7.364362 -0.704809 -18.854584 0 CFG=1
M  V30 29 C 10.060193 7.911226 -8.124479 0
M  V30 30 C 8.680822 3.843053 -16.891837 0
M  V30 31 C 5.129866 -1.588451 -19.113444 0
M  V30 32 C 10.079924 8.292360 -9.409343 0
M  V30 33 C 9.583789 5.552612 -8.820113 0
M  V30 34 C 7.991644 5.491646 -12.490946 0 CFG=1
M  V30 35 C 6.416891 5.402343 -14.946338 0
M  V30 36 C 5.327859 7.410001 -11.724727 0
M  V30 37 O 6.193104 -1.199849 -18.255336 0
M  V30 38 H 7.880310 6.169304 -9.851467 0
M  V30 39 H 7.003618 2.858963 -15.937738 0
M  V30 40 H 6.634838 3.723588 -17.400605 0
M  V30 41 H 7.863246 5.836419 -17.039789 0
M  V30 42 H 9.431187 5.784877 -16.320242 0
M  V30 43 H 7.732238 0.669328 -22.992229 0
M  V30 44 H 8.270627 1.813741 -21.768140 0
M  V30 45 H 8.849157 0.149514 -21.736337 0
M  V30 46 H 5.233518 5.863313 -10.291628 0
M  V30 47 H 8.637420 0.957332 -16.231400 0
M  V30 48 H 4.596458 5.366644 -13.891485 0
M  V30 49 H 8.443468 6.743741 -7.409145 0
M  V30 50 H 9.685749 5.482830 -6.110361 0
M  V30 51 H 8.785939 8.044780 -11.082074 0
M  V30 52 H 10.352469 7.283171 -11.242870 0
M  V30 53 H 6.425174 -0.594190 -16.451051 0
M  V30 54 H 6.521538 -0.661632 -21.287225 0
M  V30 55 H 5.911860 0.962056 -21.314814 0
M  V30 56 H 9.945699 4.902074 -11.588806 0
M  V30 57 H 8.581781 4.091288 -10.921411 0
M  V30 58 H 8.435962 -1.435188 -17.158745 0
M  V30 59 H 7.735234 -1.455820 -19.554990 0
M  V30 60 H 9.107989 3.914225 -17.892770 0
M  V30 61 H 9.414501 3.306391 -16.291667 0
M  V30 62 H 4.346910 -2.060182 -18.519753 0
M  V30 63 H 4.679591 -0.732271 -19.616451 0
M  V30 64 H 5.464766 -2.309071 -19.860532 0
M  V30 65 H 10.518249 9.240976 -9.675950 0
M  V30 66 H 10.634836 5.369158 -9.000266 0
M  V30 67 H 9.134922 4.607265 -8.513370 0
M  V30 68 H 7.904806 6.576025 -12.485771 0
M  V30 69 H 5.973564 5.592000 -15.913058 0
M  V30 70 H 4.849974 8.145251 -11.093794 0
M  V30 71 H 5.629104 7.715170 -12.715196 0
M  V30 END ATOM
M  V30 BEGIN BOND
M  V30 1 1 5 4
M  V30 2 2 8 3
M  V30 3 1 8 5
M  V30 4 1 11 8
M  V30 5 2 12 6
M  V30 6 1 13 5
M  V30 7 1 14 12
M  V30 8 1 17 16
M  V30 9 1 18 1
M  V30 10 1 19 13
M  V30 11 2 20 2
M  V30 12 1 22 2
M  V30 13 1 22 7
M  V30 14 1 23 9
M  V30 15 1 23 11
M  V30 16 1 24 10 CFG=1
M  V30 17 1 24 15
M  V30 18 3 25 21
M  V30 19 1 26 1
M  V30 20 1 27 12
M  V30 21 1 27 13
M  V30 22 1 28 11
M  V30 23 1 28 27
M  V30 24 1 29 16
M  V30 25 1 29 25
M  V30 26 1 30 4
M  V30 27 1 30 7
M  V30 28 1 32 18
M  V30 29 2 32 29
M  V30 30 1 33 1
M  V30 31 1 33 16
M  V30 32 1 34 2
M  V30 33 1 34 24
M  V30 34 1 34 26
M  V30 35 2 35 15
M  V30 36 1 35 22
M  V30 37 2 36 10
M  V30 38 1 37 28
M  V30 39 1 37 31
M  V30 40 1 1 38 CFG=1
M  V30 41 1 39 4
M  V30 42 1 40 4
M  V30 43 1 41 7
M  V30 44 1 42 7
M  V30 45 1 43 9
M  V30 46 1 44 9
M  V30 47 1 45 9
M  V30 48 1 46 10
M  V30 49 1 13 47 CFG=1
M  V30 50 1 48 15
M  V30 51 1 16 49 CFG=1
M  V30 52 1 50 17
M  V30 53 1 51 18
M  V30 54 1 52 18
M  V30 55 1 53 19
M  V30 56 1 54 23
M  V30 57 1 55 23
M  V30 58 1 56 26
M  V30 59 1 57 26
M  V30 60 1 27 58 CFG=1
M  V30 61 1 28 59 CFG=3
M  V30 62 1 60 30
M  V30 63 1 61 30
M  V30 64 1 62 31
M  V30 65 1 63 31
M  V30 66 1 64 31
M  V30 67 1 65 32
M  V30 68 1 66 33
M  V30 69 1 67 33
M  V30 70 1 34 68 CFG=1
M  V30 71 1 69 35
M  V30 72 1 70 36
M  V30 73 1 71 36
M  V30 END BOND
M  V30 END CTAB
M  END
>  <i_epik_Tot_Q>  (1) 
0

>  <i_epik_Tot_abs_Q>  (1) 
2

>  <i_i_glide_confnum>  (1) 
117

>  <i_i_glide_lignum>  (1) 
37

>  <i_i_glide_posenum>  (1) 
155

>  <i_i_glide_rotatable_bonds>  (1) 
12

>  <i_lp_mmshare_version>  (1) 
72125

>  <i_m_source_file_index>  (1) 
24

>  <i_f3d_flags>  (1) 
0

>  <num_sample>  (1) 
100

>  <b_lp_Chiralities_Consistent>  (1) 
1

>  <r_epik_Charging_Adjusted_Penalty>  (1) 
5.7553869782388246e-05

>  <r_epik_Ionization_Penalty>  (1) 
0.00064862511437644094

>  <r_epik_Ionization_Penalty_Charging>  (1) 
5.7553869782388246e-05

>  <r_epik_Ionization_Penalty_Neutral>  (1) 
0.00059107124459405267

>  <r_epik_State_Penalty>  (1) 
-0

>  <r_glide_ring_energy>  (1) 
0.11565553091839288

>  <r_i_docking_score>  (1) 
-3.7820817097633808

>  <r_i_glide_ecoul>  (1) 
-2.0918965760293942

>  <r_i_glide_eff_state_penalty>  (1) 
-0

>  <r_i_glide_einternal>  (1) 
5.8619094191007513

>  <r_i_glide_emodel>  (1) 
-41.25896145904202

>  <r_i_glide_emodel_strain>  (1) 
0.94598441204488637

>  <r_i_glide_energy>  (1) 
-35.760042097443964

>  <r_i_glide_erotb>  (1) 
0.50545294074296965

>  <r_i_glide_esite>  (1) 
-0.00031592337031172428

>  <r_i_glide_evdw>  (1) 
-33.668145521414573

>  <r_i_glide_gscore>  (1) 
-3.7820817097633808

>  <r_i_glide_gscore_strain>  (1) 
0

>  <r_i_glide_hbond>  (1) 
0

>  <r_i_glide_ligand_efficiency>  (1) 
-0.10221842458819948

>  <r_i_glide_ligand_efficiency_ln>  (1) 
-0.82024485827258409

>  <r_i_glide_ligand_efficiency_sa>  (1) 
-0.34061446805362233

>  <r_i_glide_lipo>  (1) 
-0.67488320556505177

>  <r_i_glide_metal>  (1) 
-0

>  <r_i_glide_rewards>  (1) 
-1.6151437590958491

>  <r_lp_Energy>  (1) 
40.759158999999997

>  <r_lp_tautomer_probability>  (1) 
1

>  <s_epik_Chemistry_Notes>  (1) 
This compound contains an acetal/aminal-like group ( X-CH(R)-Y where X, Y are N, S, or O) that may be acid/base labile, releasing an aldehyde.

>  <s_epik_cmdline>  (1) 
J2VwaWtfcHl0aG9uJywgJy1waHQnLCAnMS4wJywgJy1waCcsICc3LjQnLCAnLXRuJywgJzgnLCAnLW1hJywgJzUwMCcsICctaW1hZScsICc8aW5maWxlLm1hZT4nLCAnLW9tYWUnLCAnPG91dGZpbGUubWFlPic=

>  <s_epik_input>  (1) 
W09IXVtDQEhdKFtDSDJdMSlDKEMjTik9W0NIXVtDSDJdW0NASF0xW0NIMl1bQ0BASF0yW1MrXShbQ0hdPVtDSDJdKVtDSF09W0NIXU4oQzI9TylbQ0gyXVtDSDJdW0NIMl1OM0MoPU8pTihbQ0gyXVtDSDNdKVtDQEhdKE9bQ0gzXSlbQ0BASF0oQyg9TylbT0hdKVtDQEBIXTNbT0hd

>  <s_glide_docking_method>  (1) 
confgen

>  <s_i_glide_gridfile>  (1) 
gpcr_drd2_6luq_protein_autoprepared_prepared

>  <s_lp_Force_Field>  (1) 
S-OPLS

>  <s_lp_Variant>  (1) 
DiffSBDD_23_num_sample_100-1

>  <s_m_source_file>  (1) 
generated__ligand_DiffSBDD_2026-05-06_prepared.sdf

>  <GenAI_Model>  (1) 
DiffSBDD

>  <Protein>  (1) 
generic_title2

$$$$
DiffSBDD_34_num_sample_100
     RDKit          3D

  0  0  0  0  0  0  0  0  0  0999 V3000
M  V30 BEGIN CTAB
M  V30 COUNTS 60 63 0 0 1
M  V30 BEGIN ATOM
M  V30 1 N 6.157316 6.638526 -17.691152 0
M  V30 2 C 6.526830 4.435662 -14.690992 0 CFG=1
M  V30 3 C 10.588020 7.434625 -9.815761 0
M  V30 4 C 9.852807 6.818078 -8.775737 0
M  V30 5 C 8.216918 3.816849 -16.693795 0
M  V30 6 C 11.519417 6.364428 -2.518170 0
M  V30 7 C 7.961119 3.939215 -15.137714 0
M  V30 8 C 7.474774 4.949084 -17.335942 0
M  V30 9 C 11.434834 8.472861 -5.684190 0
M  V30 10 N 11.405167 7.484799 -4.748234 0
M  V30 11 C 8.864237 7.253734 -11.730461 0
M  V30 12 C 11.861972 8.679975 -8.163309 0
M  V30 13 C 11.592604 8.361153 -9.501492 0
M  V30 14 C 11.134245 8.079811 -7.121751 0
M  V30 15 O 11.434489 6.169309 -5.262928 0
M  V30 16 C 6.316806 4.642715 -13.189349 0
M  V30 17 C 11.942246 7.550205 -3.393210 0
M  V30 18 C 7.691800 2.463529 -17.208935 0
M  V30 19 C 10.119887 7.142176 -7.433136 0
M  V30 20 C 6.794194 6.316420 -18.797520 0
M  V30 21 C 6.768913 6.066696 -12.799208 0 CFG=2
M  V30 22 O 7.728082 5.369300 -10.752831 0
M  V30 23 C 6.569012 5.773107 -16.722979 0
M  V30 24 O 11.734845 9.635940 -5.410449 0
M  V30 25 S 6.897992 7.025012 -14.345011 0
M  V30 26 C 10.309939 7.095651 -11.274344 0
M  V30 27 C 9.723455 3.941445 -17.008125 0
M  V30 28 C 8.074479 5.962131 -11.988638 0 CFG=2
M  V30 29 N 7.632961 5.287240 -18.712266 0
M  V30 30 C 6.090479 5.763659 -15.332859 0 CFG=2
M  V30 31 O 8.361618 8.366037 -11.891840 0
M  V30 32 H 5.834860 3.665555 -14.983961 0
M  V30 33 H 9.085185 6.104942 -9.002270 0
M  V30 34 H 11.798815 6.555332 -1.491653 0
M  V30 35 H 12.042783 5.456231 -2.810866 0
M  V30 36 H 10.446497 6.169514 -2.545520 0
M  V30 37 H 8.676058 4.660029 -14.739754 0
M  V30 38 H 8.205051 2.999530 -14.642714 0
M  V30 39 H 12.642443 9.369282 -7.931729 0
M  V30 40 H 12.163871 8.828057 -10.291296 0
M  V30 41 H 11.229596 5.627200 -4.515183 0
M  V30 42 H 5.251299 4.554145 -12.971641 0
M  V30 43 H 6.803356 3.853482 -12.613948 0
M  V30 44 H 13.031448 7.605312 -3.445110 0
M  V30 45 H 11.614731 8.481586 -2.927452 0
M  V30 46 H 8.236602 1.631352 -16.759136 0
M  V30 47 H 7.808899 2.380990 -18.289473 0
M  V30 48 H 6.634918 2.324914 -16.984654 0
M  V30 49 H 9.540610 6.680873 -6.646518 0
M  V30 50 H 6.643242 6.854043 -19.721269 0
M  V30 51 H 5.999699 6.542878 -12.187069 0
M  V30 52 H 7.282407 6.034946 -10.233847 0
M  V30 53 H 5.487754 7.386396 -17.581371 0
M  V30 54 H 10.634794 6.081117 -11.494224 0
M  V30 55 H 10.904246 7.768394 -11.892620 0
M  V30 56 H 10.289491 3.067703 -16.691486 0
M  V30 57 H 10.157870 4.825221 -16.540779 0
M  V30 58 H 9.896350 4.027663 -18.080482 0
M  V30 59 H 8.752894 5.281149 -12.503116 0
M  V30 60 H 5.011189 5.890225 -15.276780 0
M  V30 END ATOM
M  V30 BEGIN BOND
M  V30 1 1 4 3
M  V30 2 1 7 2
M  V30 3 1 7 5
M  V30 4 1 8 5
M  V30 5 1 10 9
M  V30 6 2 13 3
M  V30 7 1 13 12
M  V30 8 1 14 9
M  V30 9 2 14 12
M  V30 10 1 15 10
M  V30 11 1 16 2
M  V30 12 1 17 6
M  V30 13 1 17 10
M  V30 14 1 18 5
M  V30 15 2 19 4
M  V30 16 1 19 14
M  V30 17 1 20 1
M  V30 18 1 21 16
M  V30 19 1 23 1
M  V30 20 2 23 8
M  V30 21 2 24 9
M  V30 22 1 25 21
M  V30 23 1 26 3
M  V30 24 1 26 11
M  V30 25 1 27 5
M  V30 26 1 28 11
M  V30 27 1 28 21
M  V30 28 1 28 22
M  V30 29 1 29 8
M  V30 30 2 29 20
M  V30 31 1 30 2
M  V30 32 1 30 23
M  V30 33 1 30 25
M  V30 34 2 31 11
M  V30 35 1 2 32 CFG=3
M  V30 36 1 33 4
M  V30 37 1 34 6
M  V30 38 1 35 6
M  V30 39 1 36 6
M  V30 40 1 37 7
M  V30 41 1 38 7
M  V30 42 1 39 12
M  V30 43 1 40 13
M  V30 44 1 41 15
M  V30 45 1 42 16
M  V30 46 1 43 16
M  V30 47 1 44 17
M  V30 48 1 45 17
M  V30 49 1 46 18
M  V30 50 1 47 18
M  V30 51 1 48 18
M  V30 52 1 49 19
M  V30 53 1 50 20
M  V30 54 1 21 51 CFG=1
M  V30 55 1 52 22
M  V30 56 1 53 1
M  V30 57 1 54 26
M  V30 58 1 55 26
M  V30 59 1 56 27
M  V30 60 1 57 27
M  V30 61 1 58 27
M  V30 62 1 28 59 CFG=3
M  V30 63 1 30 60 CFG=3
M  V30 END BOND
M  V30 END CTAB
M  END
>  <i_epik_Tot_Q>  (1) 
0

>  <i_epik_Tot_abs_Q>  (1) 
0

>  <i_i_glide_confnum>  (1) 
196

>  <i_i_glide_lignum>  (1) 
61

>  <i_i_glide_posenum>  (1) 
121

>  <i_i_glide_rotatable_bonds>  (1) 
9

>  <i_lp_mmshare_version>  (1) 
72125

>  <i_m_source_file_index>  (1) 
35

>  <i_f3d_flags>  (1) 
0

>  <num_sample>  (1) 
100

>  <b_lp_Chiralities_Consistent>  (1) 
1

>  <r_epik_Charging_Adjusted_Penalty>  (1) 
1.1277689447001258

>  <r_epik_Ionization_Penalty>  (1) 
0.43889215687938127

>  <r_epik_Ionization_Penalty_Charging>  (1) 
0.41727290489040414

>  <r_epik_Ionization_Penalty_Neutral>  (1) 
0.021619251988977111

>  <r_epik_State_Penalty>  (1) 
0.71049603980972165

>  <r_glide_ring_energy>  (1) 
0

>  <r_i_docking_score>  (1) 
-3.7799880844967815

>  <r_i_glide_ecoul>  (1) 
-3.5499529181936644

>  <r_i_glide_eff_state_penalty>  (1) 
0.71049603980972165

>  <r_i_glide_einternal>  (1) 
9.5093880847029908

>  <r_i_glide_emodel>  (1) 
-48.836118973896859

>  <r_i_glide_emodel_strain>  (1) 
2.1084905720273497

>  <r_i_glide_energy>  (1) 
-45.491123175809847

>  <r_i_glide_erotb>  (1) 
0.6096786253841594

>  <r_i_glide_esite>  (1) 
-0.070632200420675931

>  <r_i_glide_evdw>  (1) 
-41.941170257616179

>  <r_i_glide_gscore>  (1) 
-4.4904841243065032

>  <r_i_glide_gscore_strain>  (1) 
0

>  <r_i_glide_hbond>  (1) 
-0.16

>  <r_i_glide_ligand_efficiency>  (1) 
-0.12193509949989617

>  <r_i_glide_ligand_efficiency_ln>  (1) 
-0.85250315577662927

>  <r_i_glide_ligand_efficiency_sa>  (1) 
-0.38304456241639334

>  <r_i_glide_lipo>  (1) 
-2.3403277003967315

>  <r_i_glide_metal>  (1) 
-0

>  <r_i_glide_rewards>  (1) 
0.1003486017366042

>  <r_lp_Energy>  (1) 
35.794798

>  <r_lp_tautomer_probability>  (1) 
0.49995000249987359

>  <s_epik_Chemistry_Notes>  (1) 
This compound has a N-S or N-O group and may undergo hydrolysis at high or low pH.

>  <s_epik_cmdline>  (1) 
J2VwaWtfcHl0aG9uJywgJy1waHQnLCAnMS4wJywgJy1waCcsICc3LjQnLCAnLXRuJywgJzgnLCAnLW1hJywgJzUwMCcsICctaW1hZScsICc8aW5maWxlLm1hZT4nLCAnLW9tYWUnLCAnPG91dGZpbGUubWFlPic=

>  <s_epik_input>  (1) 
TjE9W0NIXU49QyhDKFtDSDJdMikoW0NIM10pW0NIM10pW0NASF0xW0NAQEhdKFtDQEBIXTIzKVNbQ0BASF0oW0NIMl0zKVtDQEhdKFtPSF0pQyg9TylbQ0gyXWM0W2NIXVtjSF1jKFtjSF1bY0hdNClDKD1PKU4oW09IXSlbQ0gyXVtDSDNd

>  <s_glide_docking_method>  (1) 
confgen

>  <s_i_glide_gridfile>  (1) 
gpcr_drd2_6luq_protein_autoprepared_prepared

>  <s_lp_Force_Field>  (1) 
S-OPLS

>  <s_lp_Variant>  (1) 
DiffSBDD_34_num_sample_100-2

>  <s_m_source_file>  (1) 
generated__ligand_DiffSBDD_2026-05-06_prepared.sdf

>  <GenAI_Model>  (1) 
DiffSBDD

>  <Protein>  (1) 
generic_title2

$$$$
DiffSBDD_44_num_sample_100
     RDKit          3D

  0  0  0  0  0  0  0  0  0  0999 V3000
M  V30 BEGIN CTAB
M  V30 COUNTS 55 57 0 0 1
M  V30 BEGIN ATOM
M  V30 1 C 7.330466 3.776315 -17.538847 0
M  V30 2 C 8.753834 4.369777 -17.706401 0 CFG=1
M  V30 3 C 10.356919 6.480549 -6.366418 0
M  V30 4 C 11.365785 9.102424 -6.294884 0
M  V30 5 C 10.889480 8.569288 -7.510625 0
M  V30 6 C 8.051862 6.167676 -13.298323 0
M  V30 7 C 9.662503 3.321002 -18.312793 0
M  V30 8 N 8.807058 5.413829 -18.748142 0
M  V30 9 C 8.610746 7.046337 -12.162144 0
M  V30 10 C 10.027903 7.139327 -10.016378 0
M  V30 11 O 10.634220 8.169295 -10.297698 0
M  V30 12 C 11.359016 8.320683 -5.128410 0
M  V30 13 N 11.834846 10.407817 -6.247911 0
M  V30 14 C 10.153083 3.636127 -19.695429 0
M  V30 15 N 9.856349 6.646915 -8.783464 0
M  V30 16 C 9.100593 5.257663 -13.966842 0
M  V30 17 O 10.521852 5.369975 -16.391987 0
M  V30 18 C 8.601991 5.280631 -10.207981 0
M  V30 19 C 9.190195 4.792720 -20.027762 0
M  V30 20 N 8.634144 4.801240 -15.274639 0
M  V30 21 C 7.686677 6.344687 -18.857662 0
M  V30 22 C 9.409749 6.274210 -11.094673 0 CFG=1
M  V30 23 C 9.138619 5.386429 -8.747566 0
M  V30 24 C 10.376367 7.243891 -7.551499 0
M  V30 25 C 9.384322 4.894174 -16.389378 0
M  V30 26 C 10.856849 7.011096 -5.165077 0
M  V30 27 O 9.967396 2.282686 -17.723884 0
M  V30 28 H 7.330519 2.920715 -16.861639 0
M  V30 29 H 6.634854 4.512158 -17.135770 0
M  V30 30 H 6.924568 3.428393 -18.489797 0
M  V30 31 H 9.967073 5.480341 -6.379753 0
M  V30 32 H 10.903838 9.186482 -8.385155 0
M  V30 33 H 7.231406 5.555506 -12.921591 0
M  V30 34 H 7.614230 6.830003 -14.046660 0
M  V30 35 H 7.792165 7.591570 -11.690091 0
M  V30 36 H 9.255673 7.807210 -12.603851 0
M  V30 37 H 11.730212 8.729481 -4.199912 0
M  V30 38 H 11.996425 10.856546 -5.358687 0
M  V30 39 H 11.667926 11.028814 -7.026060 0
M  V30 40 H 11.190948 3.966260 -19.654015 0
M  V30 41 H 10.056969 2.791520 -20.377515 0
M  V30 42 H 10.061426 5.769205 -14.030136 0
M  V30 43 H 9.281411 4.379580 -13.345451 0
M  V30 44 H 7.545783 5.555717 -10.218569 0
M  V30 45 H 8.666085 4.259184 -10.584572 0
M  V30 46 H 9.651331 5.527242 -20.688969 0
M  V30 47 H 8.306670 4.400334 -20.534617 0
M  V30 48 H 7.710332 4.400322 -15.334428 0
M  V30 49 H 7.937418 7.161583 -19.535210 0
M  V30 50 H 6.794834 5.854766 -19.250327 0
M  V30 51 H 7.434888 6.780973 -17.891742 0
M  V30 52 H 10.234864 5.741123 -11.563597 0
M  V30 53 H 9.823975 4.569094 -8.521583 0
M  V30 54 H 8.319824 5.393932 -8.025474 0
M  V30 55 H 10.844272 6.412712 -4.265967 0
M  V30 END ATOM
M  V30 BEGIN BOND
M  V30 1 1 2 1 CFG=1
M  V30 2 2 5 4
M  V30 3 1 7 2
M  V30 4 1 8 2
M  V30 5 1 9 6
M  V30 6 2 11 10
M  V30 7 1 12 4
M  V30 8 1 13 4
M  V30 9 1 14 7
M  V30 10 1 15 10
M  V30 11 1 16 6
M  V30 12 1 19 8
M  V30 13 1 19 14
M  V30 14 1 20 16
M  V30 15 1 21 8
M  V30 16 1 22 9
M  V30 17 1 22 10
M  V30 18 1 22 18
M  V30 19 1 23 15
M  V30 20 1 23 18
M  V30 21 2 24 3
M  V30 22 1 24 5
M  V30 23 1 24 15
M  V30 24 1 25 2
M  V30 25 2 25 17
M  V30 26 1 25 20
M  V30 27 1 26 3
M  V30 28 2 26 12
M  V30 29 2 27 7
M  V30 30 1 28 1
M  V30 31 1 29 1
M  V30 32 1 30 1
M  V30 33 1 31 3
M  V30 34 1 32 5
M  V30 35 1 33 6
M  V30 36 1 34 6
M  V30 37 1 35 9
M  V30 38 1 36 9
M  V30 39 1 37 12
M  V30 40 1 38 13
M  V30 41 1 39 13
M  V30 42 1 40 14
M  V30 43 1 41 14
M  V30 44 1 42 16
M  V30 45 1 43 16
M  V30 46 1 44 18
M  V30 47 1 45 18
M  V30 48 1 46 19
M  V30 49 1 47 19
M  V30 50 1 48 20
M  V30 51 1 49 21
M  V30 52 1 50 21
M  V30 53 1 51 21
M  V30 54 1 22 52 CFG=3
M  V30 55 1 53 23
M  V30 56 1 54 23
M  V30 57 1 55 26
M  V30 END BOND
M  V30 END CTAB
M  END
>  <i_epik_Tot_Q>  (1) 
0

>  <i_epik_Tot_abs_Q>  (1) 
0

>  <i_i_glide_confnum>  (1) 
262

>  <i_i_glide_lignum>  (1) 
76

>  <i_i_glide_posenum>  (1) 
347

>  <i_i_glide_rotatable_bonds>  (1) 
7

>  <i_lp_mmshare_version>  (1) 
72125

>  <i_m_source_file_index>  (1) 
45

>  <i_f3d_flags>  (1) 
0

>  <num_sample>  (1) 
100

>  <b_lp_Chiralities_Consistent>  (1) 
1

>  <r_epik_Charging_Adjusted_Penalty>  (1) 
0.38370982414574223

>  <r_epik_Ionization_Penalty>  (1) 
0.3841777034394574

>  <r_epik_Ionization_Penalty_Charging>  (1) 
0

>  <r_epik_Ionization_Penalty_Neutral>  (1) 
0.3841777034394574

>  <r_epik_State_Penalty>  (1) 
0.38370982414574223

>  <r_glide_ring_energy>  (1) 
0

>  <r_i_docking_score>  (1) 
-3.7735852732224284

>  <r_i_glide_ecoul>  (1) 
-0.8562594954554823

>  <r_i_glide_eff_state_penalty>  (1) 
0.38370982414574223

>  <r_i_glide_einternal>  (1) 
5.8500672280402348

>  <r_i_glide_emodel>  (1) 
-39.120693334525043

>  <r_i_glide_emodel_strain>  (1) 
0.61948137431920713

>  <r_i_glide_energy>  (1) 
-33.518710564400394

>  <r_i_glide_erotb>  (1) 
0.97453214498294238

>  <r_i_glide_esite>  (1) 
-0.14846483759675752

>  <r_i_glide_evdw>  (1) 
-32.662451068944911

>  <r_i_glide_gscore>  (1) 
-4.1572950973681708

>  <r_i_glide_gscore_strain>  (1) 
0

>  <r_i_glide_hbond>  (1) 
0

>  <r_i_glide_ligand_efficiency>  (1) 
-0.13976241752675661

>  <r_i_glide_ligand_efficiency_ln>  (1) 
-0.87842843919078784

>  <r_i_glide_ligand_efficiency_sa>  (1) 
-0.41928725258026989

>  <r_i_glide_lipo>  (1) 
-1.5236825094964059

>  <r_i_glide_metal>  (1) 
-0

>  <r_i_glide_rewards>  (1) 
-1.6981184174923822

>  <r_lp_Energy>  (1) 
22.834814999999999

>  <r_lp_tautomer_probability>  (1) 
0.99995000000000001

>  <s_epik_cmdline>  (1) 
J2VwaWtfcHl0aG9uJywgJy1waHQnLCAnMS4wJywgJy1waCcsICc3LjQnLCAnLXRuJywgJzgnLCAnLW1hJywgJzUwMCcsICctaW1hZScsICc8aW5maWxlLm1hZT4nLCAnLW9tYWUnLCAnPG91dGZpbGUubWFlPic=

>  <s_epik_input>  (1) 
W0NIM11OMVtDSDJdW0NIMl1DKD1PKVtDQEBdMShbQ0gzXSlDKD1PKVtOSF1bQ0gyXVtDSDJdW0NIMl1bQ0BASF0yW0NIMl1bQ0gyXU4oQzI9TyljKFtjSF1bY0hdW2NIXTMpW2NIXWMzW05IMl0=

>  <s_glide_docking_method>  (1) 
confgen

>  <s_i_glide_gridfile>  (1) 
gpcr_drd2_6luq_protein_autoprepared_prepared

>  <s_lp_Force_Field>  (1) 
S-OPLS

>  <s_lp_Variant>  (1) 
DiffSBDD_44_num_sample_100-1

>  <s_m_source_file>  (1) 
generated__ligand_DiffSBDD_2026-05-06_prepared.sdf

>  <GenAI_Model>  (1) 
DiffSBDD

>  <Protein>  (1) 
generic_title2

$$$$
DiffSBDD_33_num_sample_100
     RDKit          3D

  0  0  0  0  0  0  0  0  0  0999 V3000
M  V30 BEGIN CTAB
M  V30 COUNTS 82 83 0 0 1
M  V30 BEGIN ATOM
M  V30 1 C 8.049554 5.769169 -16.931224 0
M  V30 2 C 5.651443 3.861277 -22.000471 0
M  V30 3 C 5.092413 5.291302 -19.638682 0
M  V30 4 C 11.902474 8.269063 -8.423911 0
M  V30 5 C 6.003832 6.051400 -15.391703 0
M  V30 6 C 4.785496 6.054455 -18.365989 0
M  V30 7 C 5.664893 4.007877 -19.563944 0
M  V30 8 C 6.754182 6.162035 -16.731957 0
M  V30 9 C 8.974724 5.236203 -15.909450 0
M  V30 10 C 8.700042 4.935076 -14.662215 0
M  V30 11 C 6.025531 7.357227 -14.581047 0
M  V30 12 C 9.438011 5.066222 -12.290335 0
M  V30 13 C 10.693252 6.902138 -5.919963 0
M  V30 14 C 5.478420 7.216629 -13.140544 0
M  V30 15 C 12.796018 8.361071 -9.648091 0
M  V30 16 C 8.084236 1.889958 -20.931278 0 CFG=2
M  V30 17 C 5.974319 6.839798 -17.853134 0
M  V30 18 C 11.280118 8.123823 -5.176525 0
M  V30 19 C 8.451792 4.710648 -13.393208 0
M  V30 20 C 5.083021 5.146791 -22.074722 0
M  V30 21 C 10.724401 7.277967 -8.519408 0 CFG=1
M  V30 22 C 6.398306 6.668070 -12.026473 0
M  V30 23 C 8.514083 2.336891 -22.338704 0
M  V30 24 O 8.555436 0.579923 -20.696122 0
M  V30 25 C 4.803559 5.861871 -20.894840 0
M  V30 26 N 5.839124 0.933063 -21.490097 0 CHG=1
M  V30 27 C 9.908349 7.257251 -7.209335 0
M  V30 28 C 5.944242 3.289538 -20.741569 0
M  V30 29 C 6.563522 1.904867 -20.652342 0 CFG=2
M  V30 30 C 7.867819 7.167245 -12.006489 0
M  V30 31 O 11.835640 7.737006 -3.933474 0
M  V30 32 O 9.834678 7.666149 -9.566878 0
M  V30 33 C 8.917377 6.217396 -11.349917 0 CFG=2
M  V30 34 C 10.090750 7.099651 -10.852105 0
M  V30 35 H 8.462867 5.935972 -17.915264 0
M  V30 36 H 5.865110 3.314653 -22.907023 0
M  V30 37 H 12.570646 7.933467 -7.635170 0
M  V30 38 H 11.543696 9.260796 -8.149987 0
M  V30 39 H 4.955557 5.852797 -15.594237 0
M  V30 40 H 6.242162 5.172208 -14.813354 0
M  V30 41 H 3.940791 6.720883 -18.542615 0
M  V30 42 H 4.498030 5.369302 -17.576106 0
M  V30 43 H 5.886716 3.573416 -18.600535 0
M  V30 44 H 10.014682 5.228067 -16.201108 0
M  V30 45 H 7.007624 7.817662 -14.611165 0
M  V30 46 H 5.385026 8.066054 -15.106842 0
M  V30 47 H 10.369956 5.380795 -12.759303 0
M  V30 48 H 9.673414 4.173424 -11.710442 0
M  V30 49 H 11.471812 6.166339 -6.133452 0
M  V30 50 H 10.005097 6.401558 -5.236090 0
M  V30 51 H 5.050435 8.166271 -12.808554 0
M  V30 52 H 4.636522 6.534925 -13.190662 0
M  V30 53 H 13.669262 8.967807 -9.425766 0
M  V30 54 H 12.291690 8.787075 -10.513379 0
M  V30 55 H 13.148261 7.371031 -9.891802 0
M  V30 56 H 8.574535 2.539343 -20.203693 0
M  V30 57 H 5.610242 7.784851 -17.445066 0
M  V30 58 H 6.634049 7.119274 -18.678196 0
M  V30 59 H 12.050429 8.638490 -5.743825 0
M  V30 60 H 10.509757 8.873504 -5.008649 0
M  V30 61 H 7.468488 4.435184 -13.072682 0
M  V30 62 H 4.862120 5.586661 -23.037109 0
M  V30 63 H 11.084789 6.263050 -8.691735 0
M  V30 64 H 5.923705 6.953418 -11.092286 0
M  V30 65 H 6.318859 5.589367 -11.981230 0
M  V30 66 H 8.309588 3.395856 -22.498807 0
M  V30 67 H 8.006386 1.775285 -23.122448 0
M  V30 68 H 9.586066 2.201619 -22.482091 0
M  V30 69 H 9.483628 0.622019 -20.516228 0
M  V30 70 H 4.366471 6.847187 -20.953876 0
M  V30 71 H 4.867068 0.853802 -21.219756 0
M  V30 72 H 6.304017 0.042934 -21.372429 0
M  V30 73 H 9.395745 8.210648 -7.080046 0
M  V30 74 H 9.113714 6.521445 -7.336120 0
M  V30 75 H 6.428614 1.563215 -19.623649 0
M  V30 76 H 8.232348 7.400197 -12.999726 0
M  V30 77 H 7.859145 8.129771 -11.494622 0
M  V30 78 H 12.469308 7.050703 -4.074344 0
M  V30 79 H 8.452359 5.748127 -10.479874 0
M  V30 80 H 10.238630 7.920477 -11.554879 0
M  V30 81 H 11.033861 6.569724 -10.872067 0
M  V30 82 H 5.894751 1.212497 -22.456445 0
M  V30 END ATOM
M  V30 BEGIN BOND
M  V30 1 1 6 3
M  V30 2 2 7 3
M  V30 3 2 8 1
M  V30 4 1 8 5
M  V30 5 1 9 1
M  V30 6 2 10 9
M  V30 7 1 11 5
M  V30 8 1 14 11
M  V30 9 1 15 4
M  V30 10 1 17 6
M  V30 11 1 17 8
M  V30 12 1 18 13
M  V30 13 2 19 10
M  V30 14 1 19 12
M  V30 15 1 20 2
M  V30 16 1 21 4
M  V30 17 1 22 14
M  V30 18 1 23 16
M  V30 19 1 24 16
M  V30 20 1 25 3
M  V30 21 2 25 20
M  V30 22 1 27 13
M  V30 23 1 27 21
M  V30 24 2 28 2
M  V30 25 1 28 7
M  V30 26 1 29 16
M  V30 27 1 29 26
M  V30 28 1 29 28
M  V30 29 1 30 22
M  V30 30 1 31 18
M  V30 31 1 32 21
M  V30 32 1 33 12
M  V30 33 1 33 30
M  V30 34 1 34 32
M  V30 35 1 34 33
M  V30 36 1 35 1
M  V30 37 1 36 2
M  V30 38 1 37 4
M  V30 39 1 38 4
M  V30 40 1 39 5
M  V30 41 1 40 5
M  V30 42 1 41 6
M  V30 43 1 42 6
M  V30 44 1 43 7
M  V30 45 1 44 9
M  V30 46 1 45 11
M  V30 47 1 46 11
M  V30 48 1 47 12
M  V30 49 1 48 12
M  V30 50 1 49 13
M  V30 51 1 50 13
M  V30 52 1 51 14
M  V30 53 1 52 14
M  V30 54 1 53 15
M  V30 55 1 54 15
M  V30 56 1 55 15
M  V30 57 1 16 56 CFG=1
M  V30 58 1 57 17
M  V30 59 1 58 17
M  V30 60 1 59 18
M  V30 61 1 60 18
M  V30 62 1 61 19
M  V30 63 1 62 20
M  V30 64 1 21 63 CFG=3
M  V30 65 1 64 22
M  V30 66 1 65 22
M  V30 67 1 66 23
M  V30 68 1 67 23
M  V30 69 1 68 23
M  V30 70 1 69 24
M  V30 71 1 70 25
M  V30 72 1 71 26
M  V30 73 1 72 26
M  V30 74 1 73 27
M  V30 75 1 74 27
M  V30 76 1 29 75 CFG=1
M  V30 77 1 76 30
M  V30 78 1 77 30
M  V30 79 1 78 31
M  V30 80 1 33 79 CFG=1
M  V30 81 1 80 34
M  V30 82 1 81 34
M  V30 83 1 82 26
M  V30 END BOND
M  V30 END CTAB
M  END
>  <i_epik_Tot_Q>  (1) 
1

>  <i_epik_Tot_abs_Q>  (1) 
1

>  <i_i_glide_confnum>  (1) 
944

>  <i_i_glide_lignum>  (1) 
58

>  <i_i_glide_posenum>  (1) 
252

>  <i_i_glide_rotatable_bonds>  (1) 
14

>  <i_lp_mmshare_version>  (1) 
72125

>  <i_m_source_file_index>  (1) 
34

>  <i_f3d_flags>  (1) 
0

>  <num_sample>  (1) 
100

>  <b_lp_Chiralities_Consistent>  (1) 
1

>  <r_epik_Charging_Adjusted_Penalty>  (1) 
0.1638001962036823

>  <r_epik_Ionization_Penalty>  (1) 
0.081900497226930546

>  <r_epik_Ionization_Penalty_Charging>  (1) 
0.081900098101841165

>  <r_epik_Ionization_Penalty_Neutral>  (1) 
3.991250893861813e-07

>  <r_epik_State_Penalty>  (1) 
0.081900098101841151

>  <r_glide_ring_energy>  (1) 
0

>  <r_i_docking_score>  (1) 
-3.7720747675022728

>  <r_i_glide_ecoul>  (1) 
-2.8574094514246853

>  <r_i_glide_eff_state_penalty>  (1) 
0.081900098101841151

>  <r_i_glide_einternal>  (1) 
8.9682567135243225

>  <r_i_glide_emodel>  (1) 
-21.712006801185801

>  <r_i_glide_emodel_strain>  (1) 
5.184107208552895

>  <r_i_glide_energy>  (1) 
-29.000850567668433

>  <r_i_glide_erotb>  (1) 
1.0031588910435418

>  <r_i_glide_esite>  (1) 
-0.030834105996904532

>  <r_i_glide_evdw>  (1) 
-26.143441116243746

>  <r_i_glide_gscore>  (1) 
-3.8539748656041137

>  <r_i_glide_gscore_strain>  (1) 
0.29602680213822374

>  <r_i_glide_hbond>  (1) 
0

>  <r_i_glide_ligand_efficiency>  (1) 
-0.11094337551477274

>  <r_i_glide_ligand_efficiency_ln>  (1) 
-0.83335711925469025

>  <r_i_glide_ligand_efficiency_sa>  (1) 
-0.35941346859121714

>  <r_i_glide_lipo>  (1) 
-2.7511943390088871

>  <r_i_glide_metal>  (1) 
-0

>  <r_i_glide_rewards>  (1) 
-0.63534864025419813

>  <r_lp_Energy>  (1) 
13.020887999999999

>  <s_epik_cmdline>  (1) 
J2VwaWtfcHl0aG9uJywgJy1waHQnLCAnMS4wJywgJy1waCcsICc3LjQnLCAnLXRuJywgJzgnLCAnLW1hJywgJzUwMCcsICctaW1hZScsICc8aW5maWxlLm1hZT4nLCAnLW9tYWUnLCAnPG91dGZpbGUubWFlPic=

>  <s_epik_input>  (1) 
W0NIM11bQ0BIXShbT0hdKVtDQEhdKFtOSDJdKWMoW2NIXVtjSF1bY0hdMSlbY0hdYzFbQ0gyXVtDSDJdQ1wyPVtDSF1cW0NIXT1DPVtDSF1bQ0gyXVtDQEhdKFtDSDJdW0NIMl1bQ0gyXVtDSDJdW0NIMl0yKVtDSDJdT1tDQEBIXShbQ0gyXVtDSDNdKVtDSDJdW0NIMl1bQ0gyXVtPSF0=

>  <s_glide_docking_method>  (1) 
confgen

>  <s_i_glide_gridfile>  (1) 
gpcr_drd2_6luq_protein_autoprepared_prepared

>  <s_lp_Force_Field>  (1) 
S-OPLS

>  <s_lp_Variant>  (1) 
DiffSBDD_33_num_sample_100-1

>  <s_m_source_file>  (1) 
generated__ligand_DiffSBDD_2026-05-06_prepared.sdf

>  <GenAI_Model>  (1) 
DiffSBDD

>  <Protein>  (1) 
generic_title2

$$$$
DiffSBDD_80_num_sample_100
     RDKit          3D

  0  0  0  0  0  0  0  0  0  0999 V3000
M  V30 BEGIN CTAB
M  V30 COUNTS 57 60 0 0 1
M  V30 BEGIN ATOM
M  V30 1 C 6.503562 -1.403722 -22.738337 0
M  V30 2 C 8.727854 -0.265929 -18.508226 0
M  V30 3 O 4.448694 0.586493 -19.491495 0
M  V30 4 C 8.290945 3.213629 -16.769899 0
M  V30 5 C 4.634565 -0.622261 -19.360935 0
M  V30 6 C 7.652035 0.460707 -16.293388 0
M  V30 7 C 5.219578 -1.469822 -20.494125 0
M  V30 8 C 4.278458 -1.342509 -18.072091 0
M  V30 9 C 8.235394 -2.262108 -19.588909 0
M  V30 10 C 7.587120 -0.229115 -20.656683 0 CFG=2
M  V30 11 C 7.720217 1.434785 -15.134706 0 CFG=1
M  V30 12 O 5.435013 5.909764 -11.895612 0 CHG=-1
M  V30 13 C 7.444004 3.804384 -14.562479 0
M  V30 14 C 7.537954 1.308370 -20.492124 0
M  V30 15 C 7.834889 2.870754 -15.551154 0
M  V30 16 C 7.146474 6.106324 -13.543811 0
M  V30 17 C 8.590060 2.207422 -17.792930 0
M  V30 18 F 6.233988 6.922793 -14.081222 0
M  V30 19 C 8.303746 0.877621 -17.572090 0
M  V30 20 C 7.121501 -2.807406 -22.712486 0
M  V30 21 C 7.601296 5.139383 -14.644399 0
M  V30 22 C 6.840165 3.201780 -13.446035 0
M  V30 23 C 6.267264 -0.720375 -21.371505 0 CFG=1
M  V30 24 O 7.112498 -0.630697 -16.140347 0
M  V30 25 S 6.635338 1.435852 -13.590512 0
M  V30 26 N 7.742155 -0.905407 -19.359584 0
M  V30 27 F 8.179427 6.879019 -13.202645 0
M  V30 28 C 9.187197 2.635725 -19.053737 0
M  V30 29 C 8.787301 2.173083 -20.263124 0
M  V30 30 C 6.437273 3.900959 -12.364418 0
M  V30 31 C 6.603372 5.420198 -12.213226 0 CFG=2
M  V30 32 H 5.545487 -1.469580 -23.256917 0
M  V30 33 H 7.123888 -0.755750 -23.358213 0
M  V30 34 H 9.601399 0.013309 -19.097842 0
M  V30 35 H 9.133020 -1.009029 -17.818639 0
M  V30 36 H 8.389631 4.255380 -17.028540 0
M  V30 37 H 5.618964 -2.381850 -20.060086 0
M  V30 38 H 4.391155 -1.806427 -21.115132 0
M  V30 39 H 3.556025 -2.128161 -18.291652 0
M  V30 40 H 3.846713 -0.648825 -17.351086 0
M  V30 41 H 5.167934 -1.792170 -17.630232 0
M  V30 42 H 7.541665 -2.879760 -20.146745 0
M  V30 43 H 8.398173 -2.787794 -18.646364 0
M  V30 44 H 9.170492 -2.230911 -20.148420 0
M  V30 45 H 8.447754 -0.447305 -21.290342 0
M  V30 46 H 8.696164 1.209382 -14.711599 0
M  V30 47 H 7.137156 1.739227 -21.409592 0
M  V30 48 H 6.793765 1.570043 -19.740635 0
M  V30 49 H 7.154372 -3.222252 -23.719817 0
M  V30 50 H 6.536245 -3.493374 -22.099469 0
M  V30 51 H 8.144502 -2.789236 -22.338907 0
M  V30 52 H 8.063624 5.582968 -15.509125 0
M  V30 53 H 5.731212 0.176378 -21.683063 0
M  V30 54 H 10.003023 3.342854 -19.019668 0
M  V30 55 H 9.296773 2.515840 -21.151692 0
M  V30 56 H 5.974273 3.383404 -11.537623 0
M  V30 57 H 7.425734 5.480665 -11.498518 0
M  V30 END ATOM
M  V30 BEGIN BOND
M  V30 1 2 5 3
M  V30 2 1 7 5
M  V30 3 1 8 5
M  V30 4 1 11 6
M  V30 5 1 14 10
M  V30 6 2 15 4
M  V30 7 1 15 11
M  V30 8 1 15 13
M  V30 9 1 17 4
M  V30 10 1 18 16
M  V30 11 1 19 2
M  V30 12 1 19 6
M  V30 13 2 19 17
M  V30 14 1 20 1
M  V30 15 2 21 13
M  V30 16 1 21 16
M  V30 17 1 22 13
M  V30 18 1 23 1
M  V30 19 1 23 7
M  V30 20 1 23 10
M  V30 21 2 24 6
M  V30 22 1 25 11
M  V30 23 1 25 22
M  V30 24 1 26 2
M  V30 25 1 26 9
M  V30 26 1 26 10
M  V30 27 1 27 16
M  V30 28 1 28 17
M  V30 29 1 29 14
M  V30 30 2 29 28
M  V30 31 2 30 22
M  V30 32 1 31 12
M  V30 33 1 31 16
M  V30 34 1 31 30
M  V30 35 1 32 1
M  V30 36 1 33 1
M  V30 37 1 34 2
M  V30 38 1 35 2
M  V30 39 1 36 4
M  V30 40 1 37 7
M  V30 41 1 38 7
M  V30 42 1 39 8
M  V30 43 1 40 8
M  V30 44 1 41 8
M  V30 45 1 42 9
M  V30 46 1 43 9
M  V30 47 1 44 9
M  V30 48 1 10 45 CFG=3
M  V30 49 1 11 46 CFG=1
M  V30 50 1 47 14
M  V30 51 1 48 14
M  V30 52 1 49 20
M  V30 53 1 50 20
M  V30 54 1 51 20
M  V30 55 1 52 21
M  V30 56 1 23 53 CFG=3
M  V30 57 1 54 28
M  V30 58 1 55 29
M  V30 59 1 56 30
M  V30 60 1 31 57 CFG=1
M  V30 END BOND
M  V30 END CTAB
M  END
>  <i_epik_Tot_Q>  (1) 
-1

>  <i_epik_Tot_abs_Q>  (1) 
1

>  <i_i_glide_confnum>  (1) 
5

>  <i_i_glide_lignum>  (1) 
164

>  <i_i_glide_posenum>  (1) 
101

>  <i_i_glide_rotatable_bonds>  (1) 
4

>  <i_lp_mmshare_version>  (1) 
72125

>  <i_m_source_file_index>  (1) 
81

>  <i_f3d_flags>  (1) 
0

>  <num_sample>  (1) 
100

>  <b_lp_Chiralities_Consistent>  (1) 
1

>  <r_epik_Charging_Adjusted_Penalty>  (1) 
8.7803366933407872e-06

>  <r_epik_Ionization_Penalty>  (1) 
0.00048743314384941063

>  <r_epik_Ionization_Penalty_Charging>  (1) 
8.7803366933407872e-06

>  <r_epik_Ionization_Penalty_Neutral>  (1) 
0.00047865280715606983

>  <r_epik_State_Penalty>  (1) 
-0

>  <r_glide_ring_energy>  (1) 
0

>  <r_i_docking_score>  (1) 
-3.758704977312362

>  <r_i_glide_ecoul>  (1) 
2.9613728362264542

>  <r_i_glide_eff_state_penalty>  (1) 
-0

>  <r_i_glide_einternal>  (1) 
5.7737470349124616

>  <r_i_glide_emodel>  (1) 
-29.519682259512258

>  <r_i_glide_emodel_strain>  (1) 
0.0085431701506308855

>  <r_i_glide_energy>  (1) 
-28.098200303935734

>  <r_i_glide_erotb>  (1) 
0.20077648214602295

>  <r_i_glide_esite>  (1) 
-0.010946201093567332

>  <r_i_glide_evdw>  (1) 
-31.059573140162186

>  <r_i_glide_gscore>  (1) 
-3.758704977312362

>  <r_i_glide_gscore_strain>  (1) 
0

>  <r_i_glide_hbond>  (1) 
0

>  <r_i_glide_ligand_efficiency>  (1) 
-0.12124854765523749

>  <r_i_glide_ligand_efficiency_ln>  (1) 
-0.84770316285763958

>  <r_i_glide_ligand_efficiency_sa>  (1) 
-0.3808878417347189

>  <r_i_glide_lipo>  (1) 
-1.5651481845739403

>  <r_i_glide_metal>  (1) 
-0

>  <r_i_glide_rewards>  (1) 
-1.2746143422167358

>  <r_lp_Energy>  (1) 
51.588003999999998

>  <r_lp_tautomer_probability>  (1) 
1

>  <s_epik_cmdline>  (1) 
J2VwaWtfcHl0aG9uJywgJy1waHQnLCAnMS4wJywgJy1waCcsICc3LjQnLCAnLXRuJywgJzgnLCAnLW1hJywgJzUwMCcsICctaW1hZScsICc8aW5maWxlLm1hZT4nLCAnLW9tYWUnLCAnPG91dGZpbGUubWFlPic=

>  <s_epik_input>  (1) 
Tz1DKFtDSDNdKVtDSDJdW0NAQEhdKFtDSDJdW0NIM10pW0NAQEhdKFtDSDJdL1tDSF09W0NIXVwxKU4oW0NIM10pW0NIMl1DKEMyPU8pPUMxW0NIXT1DKFtDQEhdMjMpQz00QyhTMyk9W0NIXVtDQEhdKFtPSF0pQyhGKShGKVtDSF00

>  <s_glide_docking_method>  (1) 
confgen

>  <s_i_glide_gridfile>  (1) 
gpcr_drd2_6luq_protein_autoprepared_prepared

>  <s_lp_Force_Field>  (1) 
S-OPLS

>  <s_lp_Variant>  (1) 
DiffSBDD_80_num_sample_100-3

>  <s_m_source_file>  (1) 
generated__ligand_DiffSBDD_2026-05-06_prepared.sdf

>  <GenAI_Model>  (1) 
DiffSBDD

>  <Protein>  (1) 
generic_title2

$$$$
DiffSBDD_12_num_sample_100
     RDKit          3D

  0  0  0  0  0  0  0  0  0  0999 V3000
M  V30 BEGIN CTAB
M  V30 COUNTS 67 71 0 0 1
M  V30 BEGIN ATOM
M  V30 1 C 6.107455 0.179702 -14.772888 0
M  V30 2 C 6.635664 1.510849 -14.947019 0
M  V30 3 F 4.683894 -1.768061 -18.102871 0
M  V30 4 O 9.820873 5.369371 -14.571503 0
M  V30 5 C 12.139322 9.775419 -5.924102 0
M  V30 6 C 7.449801 3.381333 -16.417118 0
M  V30 7 C 7.289887 1.883481 -16.273449 0 CFG=2
M  V30 8 F 5.537446 -0.329122 -19.466243 0
M  V30 9 C 10.299802 7.317236 -5.750452 0
M  V30 10 C 5.720055 4.671296 -12.068365 0
M  V30 11 C 5.784670 -1.069404 -18.384888 0
M  V30 12 C 9.035803 5.104215 -9.778130 0 CFG=1
M  V30 13 C 11.370778 6.321211 -5.345783 0
M  V30 14 C 11.879452 5.842933 -6.692405 0
M  V30 15 C 11.097126 9.352515 -6.986375 0
M  V30 16 C 6.200352 -0.201730 -17.204256 0
M  V30 17 C 6.514924 2.432617 -13.961077 0
M  V30 18 C 7.266495 4.214697 -15.382706 0
M  V30 19 O 7.835031 4.969922 -9.050231 0
M  V30 20 O 7.545287 5.787514 -13.093726 0
M  V30 21 C 10.040785 6.127859 -11.736736 0 CFG=1
M  V30 22 C 10.703508 7.886061 -7.135718 0
M  V30 23 C 6.678379 4.730647 -13.073055 0
M  V30 24 F 6.760459 -1.926037 -18.685866 0
M  V30 25 C 9.772292 7.694600 -9.684890 0
M  V30 26 C 11.920233 7.099044 -7.554778 0
M  V30 27 C 9.011215 4.071369 -10.901080 0
M  V30 28 P 9.156861 5.648238 -13.265893 0 CFG=2
M  V30 29 C 9.217971 6.473921 -10.492685 0 CFG=2
M  V30 30 C 9.512595 7.704289 -8.141426 0
M  V30 31 O 5.434819 5.389921 -11.090864 0 CHG=-1
M  V30 32 C 5.909417 -0.629508 -15.833181 0
M  V30 33 C 6.818035 0.988325 -17.406556 0
M  V30 34 N 6.873698 3.785126 -14.113576 0
M  V30 35 C 9.847719 4.643318 -11.969556 0 CFG=1
M  V30 36 H 5.831256 -0.161942 -13.785340 0
M  V30 37 H 12.199988 10.863499 -5.893317 0
M  V30 38 H 11.888355 9.455019 -4.915525 0
M  V30 39 H 13.137675 9.409462 -6.153192 0
M  V30 40 H 7.743474 3.763203 -17.384012 0
M  V30 41 H 8.324866 1.565096 -16.151554 0
M  V30 42 H 10.231133 8.091326 -4.999158 0
M  V30 43 H 9.330848 6.817557 -5.789407 0
M  V30 44 H 5.149815 3.764939 -12.288835 0
M  V30 45 H 9.881892 4.900904 -9.119712 0
M  V30 46 H 12.162471 6.813879 -4.781148 0
M  V30 47 H 10.987900 5.533189 -4.704398 0
M  V30 48 H 12.844086 5.363742 -6.612250 0
M  V30 49 H 11.179906 5.145954 -7.144434 0
M  V30 50 H 11.433880 9.746485 -7.949127 0
M  V30 51 H 10.153100 9.775866 -6.691275 0
M  V30 52 H 6.071233 2.189503 -13.014083 0
M  V30 53 H 7.391375 5.283542 -15.473433 0
M  V30 54 H 7.112808 5.300090 -9.577786 0
M  V30 55 H 11.037759 6.549401 -11.843893 0
M  V30 56 H 10.804872 7.896782 -9.947410 0
M  V30 57 H 9.274088 8.574447 -10.090491 0
M  V30 58 H 11.956320 6.968008 -8.621453 0
M  V30 59 H 12.829020 7.665846 -7.410636 0
M  V30 60 H 9.434980 3.098372 -10.689663 0
M  V30 61 H 8.009392 3.883662 -11.242103 0
M  V30 62 H 8.235768 6.765840 -10.854556 0
M  V30 63 H 8.781887 8.483239 -7.930156 0
M  V30 64 H 8.982119 6.797368 -7.877117 0
M  V30 65 H 5.487400 -1.608421 -15.670787 0
M  V30 66 H 7.030017 1.322918 -18.411471 0
M  V30 67 H 10.634601 3.998398 -12.291543 0
M  V30 END ATOM
M  V30 BEGIN BOND
M  V30 1 1 2 1
M  V30 2 1 7 2
M  V30 3 1 7 6
M  V30 4 1 11 3
M  V30 5 1 11 8
M  V30 6 1 13 9
M  V30 7 1 14 13
M  V30 8 1 15 5
M  V30 9 1 16 11
M  V30 10 2 17 2
M  V30 11 2 18 6
M  V30 12 1 19 12
M  V30 13 1 22 9
M  V30 14 1 22 15
M  V30 15 2 23 10
M  V30 16 1 23 20
M  V30 17 1 24 11
M  V30 18 1 26 14
M  V30 19 1 26 22
M  V30 20 1 27 12
M  V30 21 2 28 4
M  V30 22 1 28 20 CFG=3
M  V30 23 1 28 21
M  V30 24 1 29 12
M  V30 25 1 29 21
M  V30 26 1 29 25
M  V30 27 1 30 22
M  V30 28 1 30 25
M  V30 29 1 31 10
M  V30 30 2 32 1
M  V30 31 1 32 16
M  V30 32 1 33 7
M  V30 33 2 33 16
M  V30 34 1 34 17
M  V30 35 1 34 18
M  V30 36 1 34 23
M  V30 37 1 35 21
M  V30 38 1 35 27
M  V30 39 1 35 28
M  V30 40 1 36 1
M  V30 41 1 37 5
M  V30 42 1 38 5
M  V30 43 1 39 5
M  V30 44 1 40 6
M  V30 45 1 7 41 CFG=1
M  V30 46 1 42 9
M  V30 47 1 43 9
M  V30 48 1 44 10
M  V30 49 1 12 45 CFG=1
M  V30 50 1 46 13
M  V30 51 1 47 13
M  V30 52 1 48 14
M  V30 53 1 49 14
M  V30 54 1 50 15
M  V30 55 1 51 15
M  V30 56 1 52 17
M  V30 57 1 53 18
M  V30 58 1 54 19
M  V30 59 1 21 55 CFG=3
M  V30 60 1 56 25
M  V30 61 1 57 25
M  V30 62 1 58 26
M  V30 63 1 59 26
M  V30 64 1 60 27
M  V30 65 1 61 27
M  V30 66 1 29 62 CFG=3
M  V30 67 1 63 30
M  V30 68 1 64 30
M  V30 69 1 65 32
M  V30 70 1 66 33
M  V30 71 1 35 67 CFG=3
M  V30 END BOND
M  V30 END CTAB
M  END
>  <i_epik_Tot_Q>  (1) 
-1

>  <i_epik_Tot_abs_Q>  (1) 
1

>  <i_i_glide_confnum>  (1) 
554

>  <i_i_glide_lignum>  (1) 
21

>  <i_i_glide_posenum>  (1) 
63

>  <i_i_glide_rotatable_bonds>  (1) 
9

>  <i_lp_mmshare_version>  (1) 
72125

>  <i_m_source_file_index>  (1) 
13

>  <i_f3d_flags>  (1) 
0

>  <num_sample>  (1) 
100

>  <b_lp_Chiralities_Consistent>  (1) 
1

>  <r_epik_Charging_Adjusted_Penalty>  (1) 
6.0913929175536644e-07

>  <r_epik_Ionization_Penalty>  (1) 
7.5242037030438095e-07

>  <r_epik_Ionization_Penalty_Charging>  (1) 
6.0913929175536644e-07

>  <r_epik_Ionization_Penalty_Neutral>  (1) 
1.4328107854901448e-07

>  <r_epik_State_Penalty>  (1) 
-0

>  <r_glide_ring_energy>  (1) 
0.00028320506983089342

>  <r_i_docking_score>  (1) 
-3.7561770478195284

>  <r_i_glide_ecoul>  (1) 
1.603450630609206

>  <r_i_glide_eff_state_penalty>  (1) 
-0

>  <r_i_glide_einternal>  (1) 
14.722486865817828

>  <r_i_glide_emodel>  (1) 
-17.365259242744912

>  <r_i_glide_emodel_strain>  (1) 
4.7447709845032193

>  <r_i_glide_energy>  (1) 
-23.483454149162515

>  <r_i_glide_erotb>  (1) 
0.47163652173243925

>  <r_i_glide_esite>  (1) 
-0.0037906211059762114

>  <r_i_glide_evdw>  (1) 
-25.086904779771722

>  <r_i_glide_gscore>  (1) 
-3.7561770478195284

>  <r_i_glide_gscore_strain>  (1) 
0.18619274612580483

>  <r_i_glide_hbond>  (1) 
0

>  <r_i_glide_ligand_efficiency>  (1) 
-0.1073193442234151

>  <r_i_glide_ligand_efficiency_ln>  (1) 
-0.82456422585443701

>  <r_i_glide_ligand_efficiency_sa>  (1) 
-0.35104869132074562

>  <r_i_glide_lipo>  (1) 
-2.1776831936852443

>  <r_i_glide_metal>  (1) 
-0

>  <r_i_glide_rewards>  (1) 
-1.2187048564893466

>  <r_lp_Energy>  (1) 
58.565332999999995

>  <r_lp_tautomer_probability>  (1) 
1

>  <s_epik_Chemistry_Notes>  (1) 
This compound has an imine and may undergo hydrolysis.

>  <s_epik_cmdline>  (1) 
J2VwaWtfcHl0aG9uJywgJy1waHQnLCAnMS4wJywgJy1waCcsICc3LjQnLCAnLXRuJywgJzgnLCAnLW1hJywgJzUwMCcsICctaW1hZScsICc8aW5maWxlLm1hZT4nLCAnLW9tYWUnLCAnPG91dGZpbGUubWFlPic=

>  <s_epik_input>  (1) 
W0NIXTE9W0NIXUMoQyhGKShGKUYpPVtDSF1bQ0BASF0oQzE9MilbQ0hdPVtDSF1OKFtDSF0yKVtDQEBIXShbQ0hdPU8pT1tQQF0zKD1PKVtDQEBIXShbQ0BASF0zNClbQ0gyXVtDQEhdKFtPSF0pW0NASF00W0NIMl1bQ0gyXUM1KFtDSDJdW0NIM10pW0NIMl1bQ0gyXVtDSDJdW0NIMl01

>  <s_glide_docking_method>  (1) 
confgen

>  <s_i_glide_gridfile>  (1) 
gpcr_drd2_6luq_protein_autoprepared_prepared

>  <s_lp_Force_Field>  (1) 
S-OPLS

>  <s_lp_Variant>  (1) 
DiffSBDD_12_num_sample_100-2

>  <s_m_source_file>  (1) 
generated__ligand_DiffSBDD_2026-05-06_prepared.sdf

>  <GenAI_Model>  (1) 
DiffSBDD

>  <Protein>  (1) 
generic_title2

$$$$
DiffSBDD_65_num_sample_100
     RDKit          3D

  0  0  0  0  0  0  0  0  0  0999 V3000
M  V30 BEGIN CTAB
M  V30 COUNTS 36 36 0 0 1
M  V30 BEGIN ATOM
M  V30 1 C 9.104758 6.271133 -7.450926 0
M  V30 2 C 7.833459 7.865141 -12.222353 0
M  V30 3 C 11.941669 9.090567 -4.163888 0
M  V30 4 C 10.707961 6.518692 -1.851516 0
M  V30 5 S 8.682509 6.262224 -12.211067 0 CHG=1
M  V30 6 C 11.606191 9.581835 -5.441511 0
M  V30 7 C 11.068966 7.313131 -6.173597 0
M  V30 8 C 9.198434 5.163683 -9.790281 0
M  V30 9 C 11.834893 7.713425 -3.891677 0
M  V30 10 C 7.492227 5.268499 -13.149404 0
M  V30 11 S 12.240410 7.103823 -2.291677 0
M  V30 12 C 11.397369 6.823999 -4.891408 0
M  V30 13 N 8.204705 5.769261 -10.648708 0
M  V30 14 N 9.664487 6.169301 -1.491658 0
M  V30 15 C 11.170872 8.693484 -6.446418 0
M  V30 16 C 8.674562 5.090188 -8.343477 0
M  V30 17 C 10.628517 6.354792 -7.261992 0
M  V30 18 H 8.632073 6.151767 -6.475019 0
M  V30 19 H 8.722875 7.209098 -7.854482 0
M  V30 20 H 7.834842 8.285881 -13.227243 0
M  V30 21 H 6.799146 7.763929 -11.892052 0
M  V30 22 H 8.337323 8.562881 -11.553039 0
M  V30 23 H 12.276441 9.769276 -3.393290 0
M  V30 24 H 11.685468 10.638235 -5.651955 0
M  V30 25 H 10.119452 5.739593 -9.847112 0
M  V30 26 H 9.418753 4.166644 -10.171190 0
M  V30 27 H 7.482552 5.579121 -14.194024 0
M  V30 28 H 7.767338 4.214528 -13.105458 0
M  V30 29 H 6.485958 5.379950 -12.744339 0
M  V30 30 H 11.319003 5.769326 -4.678524 0
M  V30 31 H 7.727091 6.503599 -10.126854 0
M  V30 32 H 10.920804 9.069055 -7.427570 0
M  V30 33 H 9.034820 4.169313 -7.891658 0
M  V30 34 H 7.587396 5.000619 -8.335407 0
M  V30 35 H 11.109255 6.668288 -8.187880 0
M  V30 36 H 11.035529 5.369307 -7.041497 0
M  V30 END ATOM
M  V30 BEGIN BOND
M  V30 1 1 5 2
M  V30 2 1 6 3
M  V30 3 2 9 3
M  V30 4 1 10 5
M  V30 5 1 11 4
M  V30 6 1 11 9
M  V30 7 2 12 7
M  V30 8 1 12 9
M  V30 9 1 13 5
M  V30 10 1 13 8
M  V30 11 3 14 4
M  V30 12 2 15 6
M  V30 13 1 15 7
M  V30 14 1 16 1
M  V30 15 1 16 8
M  V30 16 1 17 1
M  V30 17 1 17 7
M  V30 18 1 18 1
M  V30 19 1 19 1
M  V30 20 1 20 2
M  V30 21 1 21 2
M  V30 22 1 22 2
M  V30 23 1 23 3
M  V30 24 1 24 6
M  V30 25 1 25 8
M  V30 26 1 26 8
M  V30 27 1 27 10
M  V30 28 1 28 10
M  V30 29 1 29 10
M  V30 30 1 30 12
M  V30 31 1 31 13
M  V30 32 1 32 15
M  V30 33 1 33 16
M  V30 34 1 34 16
M  V30 35 1 35 17
M  V30 36 1 36 17
M  V30 END BOND
M  V30 END CTAB
M  END
>  <i_epik_Tot_Q>  (1) 
1

>  <i_epik_Tot_abs_Q>  (1) 
1

>  <i_i_glide_confnum>  (1) 
26

>  <i_i_glide_lignum>  (1) 
128

>  <i_i_glide_posenum>  (1) 
176

>  <i_i_glide_rotatable_bonds>  (1) 
7

>  <i_lp_mmshare_version>  (1) 
72125

>  <i_m_source_file_index>  (1) 
66

>  <i_f3d_flags>  (1) 
0

>  <num_sample>  (1) 
100

>  <b_lp_Chiralities_Consistent>  (1) 
1

>  <r_epik_Charging_Adjusted_Penalty>  (1) 
0

>  <r_epik_Ionization_Penalty>  (1) 
2.8679702438893361e-14

>  <r_epik_Ionization_Penalty_Charging>  (1) 
0

>  <r_epik_Ionization_Penalty_Neutral>  (1) 
2.8679702438893361e-14

>  <r_epik_State_Penalty>  (1) 
-0

>  <r_glide_ring_energy>  (1) 
0

>  <r_i_docking_score>  (1) 
-3.7492837226344209

>  <r_i_glide_ecoul>  (1) 
-4.0881379706143885

>  <r_i_glide_eff_state_penalty>  (1) 
-0

>  <r_i_glide_einternal>  (1) 
6.0037260921544409

>  <r_i_glide_emodel>  (1) 
-36.504028715185441

>  <r_i_glide_emodel_strain>  (1) 
1.4149372091339565

>  <r_i_glide_energy>  (1) 
-31.370582691519544

>  <r_i_glide_erotb>  (1) 
2.9918565276510027

>  <r_i_glide_esite>  (1) 
-0.0081238747681963135

>  <r_i_glide_evdw>  (1) 
-27.282444720905158

>  <r_i_glide_gscore>  (1) 
-3.7492837226344209

>  <r_i_glide_gscore_strain>  (1) 
0

>  <r_i_glide_hbond>  (1) 
-0.16

>  <r_i_glide_ligand_efficiency>  (1) 
-0.22054610133143651

>  <r_i_glide_ligand_efficiency_ln>  (1) 
-0.97810463079182985

>  <r_i_glide_ligand_efficiency_sa>  (1) 
-0.56708613024496857

>  <r_i_glide_lipo>  (1) 
-2.2812841722557002

>  <r_i_glide_metal>  (1) 
-0

>  <r_i_glide_rewards>  (1) 
-2.3143892716241106

>  <r_lp_Energy>  (1) 
7.7387159999999993

>  <r_lp_tautomer_probability>  (1) 
1

>  <s_epik_cmdline>  (1) 
J2VwaWtfcHl0aG9uJywgJy1waHQnLCAnMS4wJywgJy1waCcsICc3LjQnLCAnLXRuJywgJzgnLCAnLW1hJywgJzUwMCcsICctaW1hZScsICc8aW5maWxlLm1hZT4nLCAnLW9tYWUnLCAnPG91dGZpbGUubWFlPic=

>  <s_epik_input>  (1) 
W0NIM11bUytdKFtDSDNdKVtOSF1bQ0gyXVtDSDJdW0NIMl1bQ0gyXWMxW2NIXWMoU0MjTilbY0hdW2NIXVtjSF0x

>  <s_glide_docking_method>  (1) 
confgen

>  <s_i_glide_gridfile>  (1) 
gpcr_drd2_6luq_protein_autoprepared_prepared

>  <s_lp_Force_Field>  (1) 
S-OPLS

>  <s_lp_Variant>  (1) 
DiffSBDD_65_num_sample_100-1

>  <s_m_source_file>  (1) 
generated__ligand_DiffSBDD_2026-05-06_prepared.sdf

>  <GenAI_Model>  (1) 
DiffSBDD

>  <Protein>  (1) 
generic_title2

$$$$
DiffSBDD_94_num_sample_100
     RDKit          3D

  0  0  0  0  0  0  0  0  0  0999 V3000
M  V30 BEGIN CTAB
M  V30 COUNTS 55 56 0 0 1
M  V30 BEGIN ATOM
M  V30 1 C 5.319911 6.218291 -17.503786 0
M  V30 2 C 6.057208 4.116514 -19.017952 0
M  V30 3 C 5.254542 6.005190 -20.629486 0 CFG=1
M  V30 4 N 6.963830 7.826525 -21.170362 0
M  V30 5 C 7.218240 9.198060 -21.611270 0
M  V30 6 S 7.984533 5.369300 -17.468788 0
M  V30 7 F 5.115251 5.385316 -21.803170 0
M  V30 8 C 9.578669 6.267166 -10.100379 0
M  V30 9 C 6.349668 5.411952 -18.283617 0 CFG=2
M  V30 10 C 8.449649 6.358041 -12.460993 0 CFG=1
M  V30 11 C 7.635683 5.495577 -20.628208 0
M  V30 12 C 10.142270 7.698656 -10.124383 0
M  V30 13 C 7.856684 1.940286 -15.059284 0
M  V30 14 C 12.582637 8.299881 -9.899376 0
M  V30 15 C 8.302935 5.646920 -13.744858 0
M  V30 16 C 7.668980 4.332236 -16.009540 0 CFG=1
M  V30 17 O 7.173653 6.569308 -11.891665 0
M  V30 18 C 8.244238 2.915270 -16.184848 0
M  V30 19 C 7.984524 6.932688 -21.056609 0
M  V30 20 C 6.357054 5.364391 -19.814194 0 CFG=1
M  V30 21 C 8.082429 5.049133 -14.788013 0
M  V30 22 O 9.154696 7.230669 -21.294223 0
M  V30 23 C 5.561179 7.490872 -20.855607 0
M  V30 24 C 11.575940 7.769301 -10.611165 0
M  V30 25 C 9.369486 5.598134 -11.478042 0
M  V30 26 H 4.333448 6.169307 -17.960374 0
M  V30 27 H 5.224679 5.855757 -16.481659 0
M  V30 28 H 5.624205 7.264580 -17.463570 0
M  V30 29 H 6.817096 3.338357 -19.024265 0
M  V30 30 H 5.034841 3.751276 -19.030188 0
M  V30 31 H 4.290284 5.882279 -20.138735 0
M  V30 32 H 7.435413 9.213513 -22.680044 0
M  V30 33 H 6.355567 9.840546 -21.436287 0
M  V30 34 H 8.067961 9.640880 -21.091674 0
M  V30 35 H 8.634628 6.274263 -9.561634 0
M  V30 36 H 10.233462 5.643503 -9.491626 0
M  V30 37 H 8.880805 7.331786 -12.691672 0
M  V30 38 H 8.483527 5.062742 -20.099825 0
M  V30 39 H 7.537107 4.896553 -21.533504 0
M  V30 40 H 9.521321 8.347545 -10.741228 0
M  V30 41 H 10.088592 8.113607 -9.116936 0
M  V30 42 H 8.260930 0.946469 -15.251640 0
M  V30 43 H 8.234843 2.265635 -14.089840 0
M  V30 44 H 6.773487 1.844558 -14.978299 0
M  V30 45 H 13.588120 8.328856 -10.291949 0
M  V30 46 H 12.412516 8.712640 -8.915886 0
M  V30 47 H 6.599262 4.228051 -15.891676 0
M  V30 48 H 7.258335 6.969327 -11.024434 0
M  V30 49 H 7.882450 2.499396 -17.124983 0
M  V30 50 H 9.327738 2.967257 -16.291669 0
M  V30 51 H 5.304089 8.039204 -19.948127 0
M  V30 52 H 4.907678 7.880183 -21.637800 0
M  V30 53 H 11.773275 7.364003 -11.592748 0
M  V30 54 H 8.966989 4.597736 -11.308995 0
M  V30 55 H 10.340642 5.443996 -11.949114 0
M  V30 END ATOM
M  V30 BEGIN BOND
M  V30 1 1 5 4
M  V30 2 1 7 3
M  V30 3 1 9 1
M  V30 4 1 9 2
M  V30 5 1 9 6 CFG=1
M  V30 6 1 12 8
M  V30 7 1 15 10
M  V30 8 1 16 6
M  V30 9 1 17 10
M  V30 10 1 18 13
M  V30 11 1 18 16
M  V30 12 1 19 4
M  V30 13 1 19 11
M  V30 14 1 20 2 CFG=1
M  V30 15 1 20 3
M  V30 16 1 20 9
M  V30 17 1 20 11
M  V30 18 3 21 15
M  V30 19 1 21 16
M  V30 20 2 22 19
M  V30 21 1 23 3
M  V30 22 1 23 4
M  V30 23 1 24 12
M  V30 24 2 24 14
M  V30 25 1 25 8
M  V30 26 1 25 10
M  V30 27 1 26 1
M  V30 28 1 27 1
M  V30 29 1 28 1
M  V30 30 1 29 2
M  V30 31 1 30 2
M  V30 32 1 3 31 CFG=1
M  V30 33 1 32 5
M  V30 34 1 33 5
M  V30 35 1 34 5
M  V30 36 1 35 8
M  V30 37 1 36 8
M  V30 38 1 10 37 CFG=3
M  V30 39 1 38 11
M  V30 40 1 39 11
M  V30 41 1 40 12
M  V30 42 1 41 12
M  V30 43 1 42 13
M  V30 44 1 43 13
M  V30 45 1 44 13
M  V30 46 1 45 14
M  V30 47 1 46 14
M  V30 48 1 16 47 CFG=1
M  V30 49 1 48 17
M  V30 50 1 49 18
M  V30 51 1 50 18
M  V30 52 1 51 23
M  V30 53 1 52 23
M  V30 54 1 53 24
M  V30 55 1 54 25
M  V30 56 1 55 25
M  V30 END BOND
M  V30 END CTAB
M  END
>  <i_epik_Tot_Q>  (1) 
0

>  <i_epik_Tot_abs_Q>  (1) 
0

>  <i_i_glide_confnum>  (1) 
430

>  <i_i_glide_lignum>  (1) 
189

>  <i_i_glide_posenum>  (1) 
308

>  <i_i_glide_rotatable_bonds>  (1) 
10

>  <i_lp_mmshare_version>  (1) 
72125

>  <i_m_source_file_index>  (1) 
95

>  <i_f3d_flags>  (1) 
0

>  <num_sample>  (1) 
100

>  <b_lp_Chiralities_Consistent>  (1) 
1

>  <r_epik_Charging_Adjusted_Penalty>  (1) 
0

>  <r_epik_Ionization_Penalty>  (1) 
2.8843446265645777e-07

>  <r_epik_Ionization_Penalty_Charging>  (1) 
0

>  <r_epik_Ionization_Penalty_Neutral>  (1) 
2.8843446265645777e-07

>  <r_epik_State_Penalty>  (1) 
-0

>  <r_glide_ring_energy>  (1) 
0

>  <r_i_docking_score>  (1) 
-3.747852521208014

>  <r_i_glide_ecoul>  (1) 
-2.6822581021242269

>  <r_i_glide_eff_state_penalty>  (1) 
-0

>  <r_i_glide_einternal>  (1) 
5.7889490291865773

>  <r_i_glide_emodel>  (1) 
-31.606886456390885

>  <r_i_glide_emodel_strain>  (1) 
0.31162992564912173

>  <r_i_glide_energy>  (1) 
-28.037361402055744

>  <r_i_glide_erotb>  (1) 
1.1406536467652393

>  <r_i_glide_esite>  (1) 
0

>  <r_i_glide_evdw>  (1) 
-25.355103299931518

>  <r_i_glide_gscore>  (1) 
-3.747852521208014

>  <r_i_glide_gscore_strain>  (1) 
0

>  <r_i_glide_hbond>  (1) 
-0.16

>  <r_i_glide_ligand_efficiency>  (1) 
-0.14991410084832058

>  <r_i_glide_ligand_efficiency_ln>  (1) 
-0.88835336160317024

>  <r_i_glide_ligand_efficiency_sa>  (1) 
-0.43835149008872182

>  <r_i_glide_lipo>  (1) 
-1.6874574797344093

>  <r_i_glide_metal>  (1) 
-0

>  <r_i_glide_rewards>  (1) 
-1.3709548079236336

>  <r_lp_Energy>  (1) 
17.436699000000001

>  <r_lp_tautomer_probability>  (1) 
1

>  <s_epik_cmdline>  (1) 
J2VwaWtfcHl0aG9uJywgJy1waHQnLCAnMS4wJywgJy1waCcsICc3LjQnLCAnLXRuJywgJzgnLCAnLW1hJywgJzUwMCcsICctaW1hZScsICc8aW5maWxlLm1hZT4nLCAnLW9tYWUnLCAnPG91dGZpbGUubWFlPic=

>  <s_epik_input>  (1) 
W0NIMl0xQyg9TylOKFtDSDNdKVtDSDJdW0NAQEhdKEYpW0NAQF0xMltDSDJdW0NAQF0yKFtDSDNdKVNbQ0BASF0oW0NIMl1bQ0gzXSlDI0NbQ0BASF0oW09IXSlbQ0gyXVtDSDJdW0NIMl1bQ0hdPVtDSDJd

>  <s_glide_docking_method>  (1) 
confgen

>  <s_i_glide_gridfile>  (1) 
gpcr_drd2_6luq_protein_autoprepared_prepared

>  <s_lp_Force_Field>  (1) 
S-OPLS

>  <s_lp_Variant>  (1) 
DiffSBDD_94_num_sample_100-1

>  <s_m_source_file>  (1) 
generated__ligand_DiffSBDD_2026-05-06_prepared.sdf

>  <GenAI_Model>  (1) 
DiffSBDD

>  <Protein>  (1) 
generic_title2

$$$$
DiffSBDD_66_num_sample_100
     RDKit          3D

  0  0  0  0  0  0  0  0  0  0999 V3000
M  V30 BEGIN CTAB
M  V30 COUNTS 88 91 0 0 1
M  V30 BEGIN ATOM
M  V30 1 C 9.888478 5.044360 -15.973545 0
M  V30 2 F 7.677782 4.482879 -10.258350 0
M  V30 3 C 7.640098 5.383943 -17.265792 0 CFG=1
M  V30 4 N 7.969229 2.571885 -18.360095 0
M  V30 5 C 9.231631 0.514110 -18.121298 0
M  V30 6 F 5.757273 5.322382 -18.742597 0
M  V30 7 O 10.395290 8.969290 -9.277083 0
M  V30 8 N 10.932456 2.135043 -18.740632 0
M  V30 9 O 9.434743 3.988985 -11.591876 0
M  V30 10 C 7.151977 3.443510 -19.083085 0
M  V30 11 O 11.538601 0.328416 -17.584679 0
M  V30 12 C 6.555650 5.727678 -16.176251 0
M  V30 13 C 12.722767 1.152208 -17.827991 0
M  V30 14 C 6.778099 5.646905 -14.662750 0
M  V30 15 O 8.216210 -0.641250 -16.281899 0
M  V30 16 C 8.156431 1.253356 -18.815875 0
M  V30 17 O 6.563479 3.115982 -20.117544 0
M  V30 18 C 8.889951 -0.830130 -17.503617 0
M  V30 19 C 5.998451 4.536208 -13.905264 0
M  V30 20 C 10.253506 7.831631 -8.856682 0
M  V30 21 C 12.315560 2.421791 -18.664838 0
M  V30 22 O 8.235124 1.461541 -13.987979 0
M  V30 23 C 9.088330 6.831718 -11.946302 0
M  V30 24 C 10.794877 9.171295 -5.959186 0
M  V30 25 C 9.007681 4.667900 -10.433935 0 CFG=1
M  V30 26 O 7.487980 0.761416 -19.728005 0
M  V30 27 C 8.887786 4.523176 -17.021950 0 CFG=2
M  V30 28 N 9.865989 7.553385 -7.602542 0
M  V30 29 C 6.615559 7.569622 -11.970423 0 CFG=2
M  V30 30 C 7.486720 2.606665 -15.966430 0
M  V30 31 C 6.645937 3.154973 -13.600745 0 CFG=1
M  V30 32 O 5.434933 6.891833 -11.484978 0
M  V30 33 C 5.599510 2.020170 -13.491678 0
M  V30 34 C 7.517415 6.566768 -14.014700 0
M  V30 35 C 9.256341 6.193832 -10.528706 0 CFG=1
M  V30 36 C 8.538325 3.018731 -17.025870 0 CFG=1
M  V30 37 C 7.019209 4.910013 -18.593054 0 CFG=2
M  V30 38 C 10.507508 1.000356 -18.153483 0
M  V30 39 C 9.542306 8.589848 -6.638069 0
M  V30 40 C 5.239252 7.769284 -12.572374 0
M  V30 41 C 7.667368 6.619008 -12.513069 0 CFG=1
M  V30 42 C 7.832505 2.726721 -14.471977 0 CFG=1
M  V30 43 C 10.521098 6.653006 -9.762667 0
M  V30 44 H 9.479958 5.180055 -14.978992 0
M  V30 45 H 10.747124 4.377208 -15.892700 0
M  V30 46 H 10.275469 6.016748 -16.278899 0
M  V30 47 H 8.047107 6.355980 -17.522630 0
M  V30 48 H 10.311957 2.747659 -19.247703 0
M  V30 49 H 9.797882 3.157456 -11.324538 0
M  V30 50 H 6.367929 6.792080 -16.332991 0
M  V30 51 H 5.561570 5.369336 -16.408402 0
M  V30 52 H 13.156336 1.445259 -16.870656 0
M  V30 53 H 13.471387 0.561346 -18.356225 0
M  V30 54 H 8.044242 -1.492844 -15.886618 0
M  V30 55 H 9.787582 -1.420318 -17.324709 0
M  V30 56 H 8.260493 -1.404665 -18.183817 0
M  V30 57 H 5.674143 4.914559 -12.940775 0
M  V30 58 H 5.013236 4.428667 -14.297576 0
M  V30 59 H 12.503470 3.357590 -18.137087 0
M  V30 60 H 12.770205 2.438890 -19.655587 0
M  V30 61 H 8.468343 1.542596 -13.075394 0
M  V30 62 H 9.823280 6.399827 -12.625023 0
M  V30 63 H 9.313340 7.897958 -11.905039 0
M  V30 64 H 10.525666 9.946653 -5.239122 0
M  V30 65 H 11.347801 8.399489 -5.422106 0
M  V30 66 H 11.466838 9.619633 -6.691655 0
M  V30 67 H 9.520115 4.235165 -9.576896 0
M  V30 68 H 9.486401 4.639469 -17.927607 0
M  V30 69 H 9.764597 6.589833 -7.316058 0
M  V30 70 H 6.968705 8.476557 -11.491742 0
M  V30 71 H 7.114359 1.603325 -16.160645 0
M  V30 72 H 6.634790 3.220124 -16.155047 0
M  V30 73 H 7.057040 3.265770 -12.597561 0
M  V30 74 H 5.660306 1.320943 -14.324067 0
M  V30 75 H 5.764483 1.425163 -12.594159 0
M  V30 76 H 4.577656 2.392607 -13.491667 0
M  V30 77 H 7.992772 7.351226 -14.573266 0
M  V30 78 H 8.427511 6.569234 -9.945487 0
M  V30 79 H 9.441995 2.533926 -16.688406 0
M  V30 80 H 7.534054 5.465075 -19.376255 0
M  V30 81 H 8.964915 9.369224 -7.134227 0
M  V30 82 H 8.878254 8.158899 -5.891767 0
M  V30 83 H 4.635493 8.631953 -12.299890 0
M  V30 84 H 5.034730 7.308681 -13.532528 0
M  V30 85 H 7.394434 5.641824 -12.166217 0
M  V30 86 H 8.634878 3.424975 -14.298440 0
M  V30 87 H 10.897153 5.881537 -9.091668 0
M  V30 88 H 11.312764 6.969290 -10.448476 0
M  V30 END ATOM
M  V30 BEGIN BOND
M  V30 1 1 10 4
M  V30 2 1 12 3
M  V30 3 1 13 11
M  V30 4 1 14 12
M  V30 5 1 16 4
M  V30 6 1 16 5
M  V30 7 2 17 10
M  V30 8 1 18 5
M  V30 9 1 18 15
M  V30 10 1 19 14
M  V30 11 2 20 7
M  V30 12 1 21 8
M  V30 13 1 21 13
M  V30 14 1 25 2
M  V30 15 1 25 9
M  V30 16 2 26 16
M  V30 17 1 27 1
M  V30 18 1 27 3
M  V30 19 1 28 20
M  V30 20 1 31 19
M  V30 21 1 32 29
M  V30 22 1 33 31
M  V30 23 2 34 14
M  V30 24 1 35 23
M  V30 25 1 35 25
M  V30 26 1 36 4
M  V30 27 1 36 27
M  V30 28 1 36 30
M  V30 29 1 37 3
M  V30 30 1 37 6
M  V30 31 1 37 10
M  V30 32 2 38 5
M  V30 33 1 38 8
M  V30 34 1 38 11
M  V30 35 1 39 24
M  V30 36 1 39 28
M  V30 37 1 40 29
M  V30 38 1 40 32
M  V30 39 1 41 23
M  V30 40 1 41 29
M  V30 41 1 41 34
M  V30 42 1 42 22
M  V30 43 1 42 30
M  V30 44 1 42 31
M  V30 45 1 43 20
M  V30 46 1 43 35
M  V30 47 1 44 1
M  V30 48 1 45 1
M  V30 49 1 46 1
M  V30 50 1 3 47 CFG=3
M  V30 51 1 48 8
M  V30 52 1 49 9
M  V30 53 1 50 12
M  V30 54 1 51 12
M  V30 55 1 52 13
M  V30 56 1 53 13
M  V30 57 1 54 15
M  V30 58 1 55 18
M  V30 59 1 56 18
M  V30 60 1 57 19
M  V30 61 1 58 19
M  V30 62 1 59 21
M  V30 63 1 60 21
M  V30 64 1 61 22
M  V30 65 1 62 23
M  V30 66 1 63 23
M  V30 67 1 64 24
M  V30 68 1 65 24
M  V30 69 1 66 24
M  V30 70 1 25 67 CFG=1
M  V30 71 1 27 68 CFG=3
M  V30 72 1 69 28
M  V30 73 1 29 70 CFG=1
M  V30 74 1 71 30
M  V30 75 1 72 30
M  V30 76 1 31 73 CFG=1
M  V30 77 1 74 33
M  V30 78 1 75 33
M  V30 79 1 76 33
M  V30 80 1 77 34
M  V30 81 1 35 78 CFG=1
M  V30 82 1 36 79 CFG=1
M  V30 83 1 37 80 CFG=3
M  V30 84 1 81 39
M  V30 85 1 82 39
M  V30 86 1 83 40
M  V30 87 1 84 40
M  V30 88 1 41 85 CFG=1
M  V30 89 1 42 86 CFG=3
M  V30 90 1 87 43
M  V30 91 1 88 43
M  V30 END BOND
M  V30 END CTAB
M  END
>  <i_epik_Tot_Q>  (1) 
0

>  <i_epik_Tot_abs_Q>  (1) 
0

>  <i_i_glide_confnum>  (1) 
1417

>  <i_i_glide_lignum>  (1) 
129

>  <i_i_glide_posenum>  (1) 
382

>  <i_i_glide_rotatable_bonds>  (1) 
15

>  <i_lp_mmshare_version>  (1) 
72125

>  <i_m_source_file_index>  (1) 
67

>  <i_f3d_flags>  (1) 
0

>  <num_sample>  (1) 
100

>  <b_lp_Chiralities_Consistent>  (1) 
1

>  <r_epik_Charging_Adjusted_Penalty>  (1) 
0.011224841026204068

>  <r_epik_Ionization_Penalty>  (1) 
0.011270599783865109

>  <r_epik_Ionization_Penalty_Charging>  (1) 
8.5422756824624084e-11

>  <r_epik_Ionization_Penalty_Neutral>  (1) 
0.011270599698442352

>  <r_epik_State_Penalty>  (1) 
0.01122484094078131

>  <r_glide_ring_energy>  (1) 
0

>  <r_i_docking_score>  (1) 
-3.7469278885697364

>  <r_i_glide_ecoul>  (1) 
-5.5041558357158111

>  <r_i_glide_eff_state_penalty>  (1) 
0.01122484094078131

>  <r_i_glide_einternal>  (1) 
25.620780349063516

>  <r_i_glide_emodel>  (1) 
-20.401203215888987

>  <r_i_glide_emodel_strain>  (1) 
9.124762146887889

>  <r_i_glide_energy>  (1) 
-37.45378056690636

>  <r_i_glide_erotb>  (1) 
0.43215163049877869

>  <r_i_glide_esite>  (1) 
-0.15898478726903126

>  <r_i_glide_evdw>  (1) 
-31.949624731190546

>  <r_i_glide_gscore>  (1) 
-3.7581527295105177

>  <r_i_glide_gscore_strain>  (1) 
1.2811905367219723

>  <r_i_glide_hbond>  (1) 
-0.32000000000000001

>  <r_i_glide_ligand_efficiency>  (1) 
-0.087137857873714794

>  <r_i_glide_ligand_efficiency_ln>  (1) 
-0.78697130923343328

>  <r_i_glide_ligand_efficiency_sa>  (1) 
-0.30527860226102654

>  <r_i_glide_lipo>  (1) 
-2.0121643552138031

>  <r_i_glide_metal>  (1) 
-0

>  <r_i_glide_rewards>  (1) 
-0.55724114233153554

>  <r_lp_Energy>  (1) 
54.897804999999998

>  <r_lp_tautomer_probability>  (1) 
0.49997499999946832

>  <s_epik_Chemistry_Notes>  (1) 
This compound has an imine and may undergo hydrolysis.

>  <s_epik_cmdline>  (1) 
J2VwaWtfcHl0aG9uJywgJy1waHQnLCAnMS4wJywgJy1waCcsICc3LjQnLCAnLXRuJywgJzgnLCAnLW1hJywgJzUwMCcsICctaW1hZScsICc8aW5maWxlLm1hZT4nLCAnLW9tYWUnLCAnPG91dGZpbGUubWFlPic=

>  <s_epik_input>  (1) 
TzFbQ0gyXVtDSDJdTj1DMVtDQEhdKFtDSDJdW09IXSlDKD1PKU4oQyg9TylbQ0BIXTJGKVtDQEBIXShbQ0BASF0zW0NIM10pW0NIMl1bQ0BIXShbT0hdKVtDQEhdKFtDSDNdKVtDSDJdQyhcW0NIMl1bQ0BIXTIzKT1bQ0hdL1tDQEhdKFtDQEBIXTRPW0NIMl00KVtDSDJdW0NAQEhdKFtDQEBIXShGKVtPSF0pW0NIMl1DKD1PKVtOSF1bQ0gyXVtDSDNd

>  <s_glide_docking_method>  (1) 
confgen

>  <s_i_glide_gridfile>  (1) 
gpcr_drd2_6luq_protein_autoprepared_prepared

>  <s_lp_Force_Field>  (1) 
S-OPLS

>  <s_lp_Variant>  (1) 
DiffSBDD_66_num_sample_100-1

>  <s_m_source_file>  (1) 
generated__ligand_DiffSBDD_2026-05-06_prepared.sdf

>  <GenAI_Model>  (1) 
DiffSBDD

>  <Protein>  (1) 
generic_title2

$$$$
DiffSBDD_29_num_sample_100
     RDKit          3D

  0  0  0  0  0  0  0  0  0  0999 V3000
M  V30 BEGIN CTAB
M  V30 COUNTS 73 77 0 0 1
M  V30 BEGIN ATOM
M  V30 1 F 10.740467 5.439275 -21.340878 0
M  V30 2 O 7.055559 5.676934 -16.339171 0
M  V30 3 N 8.234828 1.964972 -14.035903 0
M  V30 4 C 8.149665 7.022303 -12.873860 0
M  V30 5 N 8.151338 7.853170 -22.410036 0
M  V30 6 C 6.199313 9.052992 -21.466337 0
M  V30 7 C 8.571713 3.811101 -16.467939 0 CFG=1
M  V30 8 C 4.761714 7.753090 -19.964741 0
M  V30 9 C 7.003862 7.916144 -21.616770 0
M  V30 10 C 7.570049 1.168452 -14.965525 0
M  V30 11 C 6.317577 5.309602 -13.514293 0
M  V30 12 N 7.994763 2.368706 -18.392470 0
M  V30 13 C 9.771121 6.596639 -11.017187 0 CFG=2
M  V30 14 O 10.473518 7.209864 -9.953048 0
M  V30 15 O 7.517900 1.457779 -20.771793 0
M  V30 16 C 8.675075 3.858683 -12.509400 0
M  V30 17 C 7.945249 4.848866 -11.576633 0 CFG=2
M  V30 18 C 8.808192 6.495165 -22.194223 0 CFG=2
M  V30 19 C 7.772243 4.505616 -20.928107 0
M  V30 20 C 9.406177 4.567335 -17.535479 0
M  V30 21 C 7.245032 1.466110 -16.252126 0
M  V30 22 C 7.880029 4.836214 -15.546706 0 CFG=2
M  V30 23 N 6.794628 3.871944 -20.152752 0
M  V30 24 C 5.604637 6.630520 -20.144048 0
M  V30 25 C 7.731326 5.807460 -21.307190 0
M  V30 26 C 7.187303 5.928496 -12.382359 0 CFG=1
M  V30 27 C 5.060029 8.970327 -20.630940 0
M  V30 28 C 8.964687 7.669514 -11.760403 0
M  V30 29 F 10.977093 7.407754 -22.213182 0
M  V30 30 C 7.683351 3.207101 -13.492043 0 CFG=1
M  V30 31 C 8.860217 5.469794 -10.490005 0
M  V30 32 C 7.579655 2.751640 -17.035274 0 CFG=1
M  V30 33 C 7.006886 4.238844 -14.417630 0 CFG=1
M  V30 34 C 10.167736 6.632843 -21.491829 0
M  V30 35 C 6.728194 6.764544 -20.989181 0
M  V30 36 O 5.568097 1.835704 -19.136395 0
M  V30 37 S 6.875396 2.217687 -19.689369 0
M  V30 38 H 6.718792 6.366664 -15.788765 0
M  V30 39 H 8.903877 6.569247 -13.491673 0
M  V30 40 H 7.627972 7.778151 -13.462691 0
M  V30 41 H 8.723876 8.674332 -22.554576 0
M  V30 42 H 6.440863 9.971576 -21.979842 0
M  V30 43 H 9.325553 3.304025 -15.892049 0
M  V30 44 H 3.897941 7.686204 -19.319953 0
M  V30 45 H 7.326464 0.194346 -14.565798 0
M  V30 46 H 5.470101 4.818677 -13.033239 0
M  V30 47 H 5.866309 6.102843 -14.109391 0
M  V30 48 H 8.886287 1.887242 -18.501793 0
M  V30 49 H 10.503765 6.165459 -11.700673 0
M  V30 50 H 10.680254 6.551446 -9.307467 0
M  V30 51 H 9.485956 4.341125 -13.056232 0
M  V30 52 H 9.142539 3.086748 -11.895594 0
M  V30 53 H 7.193928 4.266439 -11.039940 0
M  V30 54 H 8.903857 5.972338 -23.147166 0
M  V30 55 H 8.577595 3.847779 -21.221336 0
M  V30 56 H 8.772523 5.065688 -18.269211 0
M  V30 57 H 10.077163 3.896552 -18.072798 0
M  V30 58 H 10.034100 5.330808 -17.077153 0
M  V30 59 H 8.672838 5.449972 -15.139823 0
M  V30 60 H 5.983697 4.396822 -19.837596 0
M  V30 61 H 5.388157 5.712535 -19.634090 0
M  V30 62 H 6.499983 6.423198 -11.693004 0
M  V30 63 H 4.422256 9.831143 -20.496523 0
M  V30 64 H 8.302047 8.211739 -11.091742 0
M  V30 65 H 9.638415 8.411283 -12.186854 0
M  V30 66 H 6.872376 2.827864 -12.868472 0
M  V30 67 H 9.457583 4.689384 -10.019539 0
M  V30 68 H 8.233085 5.877307 -9.697611 0
M  V30 69 H 6.634918 3.263336 -17.172420 0
M  V30 70 H 6.197482 3.715386 -14.913718 0
M  V30 71 H 10.076420 7.088148 -20.504609 0
M  V30 72 H 6.727083 0.708646 -16.824840 0
M  V30 73 H 8.706215 1.440485 -13.309290 0
M  V30 END ATOM
M  V30 BEGIN BOND
M  V30 1 1 9 5
M  V30 2 2 9 6
M  V30 3 1 10 3
M  V30 4 1 14 13
M  V30 5 1 17 16
M  V30 6 1 18 5
M  V30 7 1 20 7
M  V30 8 2 21 10
M  V30 9 1 22 2
M  V30 10 1 22 7
M  V30 11 1 23 19
M  V30 12 1 24 8
M  V30 13 1 25 18
M  V30 14 2 25 19
M  V30 15 1 26 4
M  V30 16 1 26 11
M  V30 17 1 26 17
M  V30 18 1 27 6
M  V30 19 2 27 8
M  V30 20 1 28 4
M  V30 21 1 28 13
M  V30 22 1 30 3
M  V30 23 1 30 16
M  V30 24 1 31 13
M  V30 25 1 31 17
M  V30 26 1 32 7
M  V30 27 1 32 12
M  V30 28 1 32 21
M  V30 29 1 33 11
M  V30 30 1 33 22
M  V30 31 1 33 30
M  V30 32 1 34 1
M  V30 33 1 34 18
M  V30 34 1 34 29
M  V30 35 1 35 9
M  V30 36 2 35 24
M  V30 37 1 35 25
M  V30 38 1 37 12
M  V30 39 2 37 15
M  V30 40 1 37 23
M  V30 41 2 37 36
M  V30 42 1 38 2
M  V30 43 1 39 4
M  V30 44 1 40 4
M  V30 45 1 41 5
M  V30 46 1 42 6
M  V30 47 1 7 43 CFG=1
M  V30 48 1 44 8
M  V30 49 1 45 10
M  V30 50 1 46 11
M  V30 51 1 47 11
M  V30 52 1 48 12
M  V30 53 1 13 49 CFG=3
M  V30 54 1 50 14
M  V30 55 1 51 16
M  V30 56 1 52 16
M  V30 57 1 17 53 CFG=1
M  V30 58 1 18 54 CFG=3
M  V30 59 1 55 19
M  V30 60 1 56 20
M  V30 61 1 57 20
M  V30 62 1 58 20
M  V30 63 1 22 59 CFG=1
M  V30 64 1 60 23
M  V30 65 1 61 24
M  V30 66 1 26 62 CFG=1
M  V30 67 1 63 27
M  V30 68 1 64 28
M  V30 69 1 65 28
M  V30 70 1 30 66 CFG=1
M  V30 71 1 67 31
M  V30 72 1 68 31
M  V30 73 1 32 69 CFG=3
M  V30 74 1 33 70 CFG=3
M  V30 75 1 71 34
M  V30 76 1 72 21
M  V30 77 1 73 3
M  V30 END BOND
M  V30 END CTAB
M  END
>  <i_epik_Tot_Q>  (1) 
0

>  <i_epik_Tot_abs_Q>  (1) 
0

>  <i_i_glide_confnum>  (1) 
9

>  <i_i_glide_lignum>  (1) 
54

>  <i_i_glide_posenum>  (1) 
355

>  <i_i_glide_rotatable_bonds>  (1) 
7

>  <i_lp_mmshare_version>  (1) 
72125

>  <i_m_source_file_index>  (1) 
30

>  <i_f3d_flags>  (1) 
0

>  <num_sample>  (1) 
100

>  <b_lp_Chiralities_Consistent>  (1) 
1

>  <r_epik_Charging_Adjusted_Penalty>  (1) 
1.5459132844328078e-07

>  <r_epik_Ionization_Penalty>  (1) 
1.5952634643945804

>  <r_epik_Ionization_Penalty_Charging>  (1) 
1.5459132844328078e-07

>  <r_epik_Ionization_Penalty_Neutral>  (1) 
1.595263309803252

>  <r_epik_State_Penalty>  (1) 
-0

>  <r_glide_ring_energy>  (1) 
0

>  <r_i_docking_score>  (1) 
-3.7424552856815816

>  <r_i_glide_ecoul>  (1) 
-1.1333826971695191

>  <r_i_glide_eff_state_penalty>  (1) 
-0

>  <r_i_glide_einternal>  (1) 
5.3435048707173287

>  <r_i_glide_emodel>  (1) 
-38.267168832201293

>  <r_i_glide_emodel_strain>  (1) 
0.41739922611301949

>  <r_i_glide_energy>  (1) 
-34.061343332589445

>  <r_i_glide_erotb>  (1) 
0.28486469644810641

>  <r_i_glide_esite>  (1) 
-0.00063112515283691051

>  <r_i_glide_evdw>  (1) 
-32.927960635419929

>  <r_i_glide_gscore>  (1) 
-3.7424552856815816

>  <r_i_glide_gscore_strain>  (1) 
0

>  <r_i_glide_hbond>  (1) 
0

>  <r_i_glide_ligand_efficiency>  (1) 
-0.10114744015355626

>  <r_i_glide_ligand_efficiency_ln>  (1) 
-0.81165081586442622

>  <r_i_glide_ligand_efficiency_sa>  (1) 
-0.33704571031773151

>  <r_i_glide_lipo>  (1) 
-1.9037787395052195

>  <r_i_glide_metal>  (1) 
-0

>  <r_i_glide_rewards>  (1) 
-0.30650468112520746

>  <r_lp_Energy>  (1) 
50.533285999999997

>  <r_lp_tautomer_probability>  (1) 
1

>  <s_epik_Chemistry_Notes>  (1) 
This compound has an imine and may undergo hydrolysis.

>  <s_epik_cmdline>  (1) 
J2VwaWtfcHl0aG9uJywgJy1waHQnLCAnMS4wJywgJy1waCcsICc3LjQnLCAnLXRuJywgJzgnLCAnLW1hJywgJzUwMCcsICctaW1hZScsICc8aW5maWxlLm1hZT4nLCAnLW9tYWUnLCAnPG91dGZpbGUubWFlPic=

>  <s_epik_input>  (1) 
W2NIXTFbY0hdW2NIXVtjSF1jKGMxMilDKC9bQ0BASF0oW05IXTIpW0NIXShGKUYpPVtDSF1cW05IXVMoPU8pKD1PKVtOSF1bQ0BIXShbQ0BASF0oW0NIM10pW0NASF0zW09IXSlbQ0gyXVxbQ0hdPU5cW0NAQEhdKFtDSDJdNClbQ0BIXTNbQ0gyXVtDQEBIXShbQ0BASF00NSlbQ0gyXVtDSDJdW0NASF0oW09IXSlbQ0gyXTU=

>  <s_glide_docking_method>  (1) 
confgen

>  <s_i_glide_gridfile>  (1) 
gpcr_drd2_6luq_protein_autoprepared_prepared

>  <s_lp_Force_Field>  (1) 
S-OPLS

>  <s_lp_Variant>  (1) 
DiffSBDD_29_num_sample_100-4

>  <s_m_source_file>  (1) 
generated__ligand_DiffSBDD_2026-05-06_prepared.sdf

>  <GenAI_Model>  (1) 
DiffSBDD

>  <Protein>  (1) 
generic_title2

$$$$
DiffSBDD_36_num_sample_100
     RDKit          3D

  0  0  0  0  0  0  0  0  0  0999 V3000
M  V30 BEGIN CTAB
M  V30 COUNTS 101 106 0 0 1
M  V30 BEGIN ATOM
M  V30 1 C 7.674581 5.423435 -14.998022 0
M  V30 2 O 5.873178 3.213563 -19.814463 0
M  V30 3 C 6.796749 -0.963384 -16.691592 0
M  V30 4 C 17.277571 10.169302 -20.282171 0
M  V30 5 C 11.912002 4.623704 -20.344964 0 CFG=1
M  V30 6 O 14.710868 9.049147 -21.016095 0
M  V30 7 C 6.742995 -0.221820 -20.391823 0
M  V30 8 C 7.458627 1.827238 -16.254804 0
M  V30 9 C 7.600533 1.109295 -17.608894 0 CFG=1
M  V30 10 C 6.826943 1.043765 -15.151875 0 CFG=1
M  V30 11 C 4.883965 4.186599 -21.654305 0
M  V30 12 C 8.919482 -0.406918 -18.964487 0
M  V30 13 C 6.087919 -0.231182 -15.564379 0
M  V30 14 C 7.780311 3.917680 -14.866747 0
M  V30 15 S 13.248726 6.267210 -22.100241 0
M  V30 16 C 7.908109 3.387727 -13.602490 0
M  V30 17 C 7.880025 6.748022 -19.759771 0
M  V30 18 C 8.100897 1.975606 -13.237318 0
M  V30 19 C 15.041470 6.866352 -20.030131 0
M  V30 20 C 5.792878 4.443150 -20.464184 0 CFG=2
M  V30 21 O 13.067736 5.389884 -18.263583 0
M  V30 22 C 15.065452 5.606169 -16.097746 0
M  V30 23 C 12.162451 4.926314 -21.808984 0
M  V30 24 C 16.869473 8.769014 -19.903267 0
M  V30 25 C 13.361438 4.241160 -17.485203 0
M  V30 26 C 9.040811 0.732195 -17.958214 0
M  V30 27 O 7.693271 7.606554 -20.888020 0
M  V30 28 C 16.353437 4.888738 -16.520845 0
M  V30 29 C 7.413881 -0.742246 -19.076766 0 CFG=2
M  V30 30 C 7.227114 -2.281783 -19.128223 0
M  V30 31 S 17.851003 7.741169 -19.019845 0
M  V30 32 O 7.027361 4.837469 -20.970537 0
M  V30 33 C 13.816684 4.706075 -16.098493 0
M  V30 34 C 9.354426 4.870314 -20.626477 0
M  V30 35 C 11.634980 4.217198 -22.818882 0
M  V30 36 N 6.808500 -0.105270 -17.877709 0
M  V30 37 C 5.658112 2.136469 -20.733723 0 CFG=1
M  V30 38 C 13.179006 5.191428 -19.663919 0 CFG=2
M  V30 39 C 15.458356 8.303802 -20.382696 0
M  V30 40 O 6.598570 7.369301 -19.891660 0
M  V30 41 C 10.603013 5.262898 -19.814612 0
M  V30 42 O 8.002794 1.704815 -21.112815 0
M  V30 43 C 13.574224 6.520350 -20.337102 0 CFG=2
M  V30 44 C 7.664429 0.930767 -13.942859 0
M  V30 45 C 7.830305 3.113512 -16.112264 0
M  V30 46 C 7.997102 5.253903 -20.016143 0 CFG=1
M  V30 47 C 5.362606 2.813295 -22.081792 0
M  V30 48 C 6.909569 1.252265 -20.776067 0
M  V30 49 H 7.386041 5.712868 -16.009038 0
M  V30 50 H 6.928636 5.820749 -14.308622 0
M  V30 51 H 8.634832 5.884328 -14.771081 0
M  V30 52 H 6.233806 -1.877519 -16.877145 0
M  V30 53 H 7.808603 -1.247203 -16.398890 0
M  V30 54 H 17.724027 10.166733 -21.276356 0
M  V30 55 H 16.419342 10.843023 -20.291663 0
M  V30 56 H 11.868163 3.543473 -20.197668 0
M  V30 57 H 5.676427 -0.444567 -20.356192 0
M  V30 58 H 7.285653 1.856780 -18.328816 0
M  V30 59 H 6.028490 1.682140 -14.782439 0
M  V30 60 H 3.850588 4.169320 -21.307615 0
M  V30 61 H 4.996553 4.956658 -22.418244 0
M  V30 62 H 9.482826 -1.260483 -18.587239 0
M  V30 63 H 9.362222 -0.153034 -19.927490 0
M  V30 64 H 5.079703 0.023232 -15.896675 0
M  V30 65 H 5.953747 -0.891735 -14.708093 0
M  V30 66 H 7.928941 4.097010 -12.787363 0
M  V30 67 H 8.510018 7.162287 -18.975603 0
M  V30 68 H 8.633656 1.769310 -12.320568 0
M  V30 69 H 15.194405 6.726501 -18.961139 0
M  V30 70 H 15.701722 6.164690 -20.540100 0
M  V30 71 H 5.385309 5.197523 -19.791054 0
M  V30 72 H 14.898957 6.477966 -16.729911 0
M  V30 73 H 15.206312 5.998689 -15.091663 0
M  V30 74 H 12.471497 3.614897 -17.411637 0
M  V30 75 H 14.147638 3.626426 -17.924804 0
M  V30 76 H 9.587824 1.583011 -18.366468 0
M  V30 77 H 9.579259 0.387309 -17.077055 0
M  V30 78 H 17.211383 5.555351 -16.427334 0
M  V30 79 H 16.539858 4.017413 -15.892327 0
M  V30 80 H 16.303600 4.562949 -17.559836 0
M  V30 81 H 7.646821 -2.693403 -20.046489 0
M  V30 82 H 7.728634 -2.800038 -18.309991 0
M  V30 83 H 6.171839 -2.558003 -19.104673 0
M  V30 84 H 18.008099 10.558509 -19.571651 0
M  V30 85 H 12.997131 5.244691 -15.621580 0
M  V30 86 H 14.011943 3.824864 -15.491657 0
M  V30 87 H 9.416298 5.318670 -21.618295 0
M  V30 88 H 9.369114 3.793060 -20.779497 0
M  V30 89 H 10.976966 3.381576 -22.629548 0
M  V30 90 H 11.855333 4.464487 -23.845328 0
M  V30 91 H 4.793880 1.564783 -20.394322 0
M  V30 92 H 13.996802 4.498946 -19.876463 0
M  V30 93 H 10.463749 4.963903 -18.774825 0
M  V30 94 H 10.699359 6.348878 -19.809128 0
M  V30 95 H 7.130528 -0.792613 -21.235853 0
M  V30 96 H 12.910319 7.310298 -19.982894 0
M  V30 97 H 7.864289 -0.069091 -13.587503 0
M  V30 98 H 8.204070 3.610794 -16.994679 0
M  V30 99 H 7.866268 4.720955 -19.073417 0
M  V30 100 H 6.263739 2.916214 -22.689215 0
M  V30 101 H 4.634838 2.267197 -22.679993 0
M  V30 END ATOM
M  V30 BEGIN BOND
M  V30 1 1 9 8
M  V30 2 1 10 8
M  V30 3 1 13 3
M  V30 4 1 13 10
M  V30 5 1 14 1
M  V30 6 2 16 14
M  V30 7 1 18 16
M  V30 8 1 20 2
M  V30 9 1 20 11
M  V30 10 1 23 5
M  V30 11 1 23 15
M  V30 12 1 24 4
M  V30 13 1 25 21
M  V30 14 1 26 9
M  V30 15 1 26 12
M  V30 16 1 27 17
M  V30 17 1 28 22
M  V30 18 1 29 7 CFG=3
M  V30 19 1 29 12
M  V30 20 1 30 29
M  V30 21 2 31 24
M  V30 22 1 32 20
M  V30 23 1 33 22
M  V30 24 1 33 25
M  V30 25 2 35 23
M  V30 26 1 36 3
M  V30 27 1 36 9
M  V30 28 1 36 29
M  V30 29 1 37 2
M  V30 30 1 38 5
M  V30 31 1 38 21
M  V30 32 2 39 6
M  V30 33 1 39 19
M  V30 34 1 39 24
M  V30 35 1 40 17
M  V30 36 1 40 27
M  V30 37 1 41 5
M  V30 38 1 41 34
M  V30 39 1 43 15
M  V30 40 1 43 19
M  V30 41 1 43 38
M  V30 42 1 44 10
M  V30 43 2 44 18
M  V30 44 2 45 8
M  V30 45 1 45 14
M  V30 46 1 46 17
M  V30 47 1 46 32
M  V30 48 1 46 34
M  V30 49 1 47 11
M  V30 50 1 47 37
M  V30 51 1 48 7
M  V30 52 1 48 37
M  V30 53 2 48 42
M  V30 54 1 49 1
M  V30 55 1 50 1
M  V30 56 1 51 1
M  V30 57 1 52 3
M  V30 58 1 53 3
M  V30 59 1 54 4
M  V30 60 1 55 4
M  V30 61 1 5 56 CFG=3
M  V30 62 1 57 7
M  V30 63 1 9 58 CFG=3
M  V30 64 1 10 59 CFG=1
M  V30 65 1 60 11
M  V30 66 1 61 11
M  V30 67 1 62 12
M  V30 68 1 63 12
M  V30 69 1 64 13
M  V30 70 1 65 13
M  V30 71 1 66 16
M  V30 72 1 67 17
M  V30 73 1 68 18
M  V30 74 1 69 19
M  V30 75 1 70 19
M  V30 76 1 20 71 CFG=1
M  V30 77 1 72 22
M  V30 78 1 73 22
M  V30 79 1 74 25
M  V30 80 1 75 25
M  V30 81 1 76 26
M  V30 82 1 77 26
M  V30 83 1 78 28
M  V30 84 1 79 28
M  V30 85 1 80 28
M  V30 86 1 81 30
M  V30 87 1 82 30
M  V30 88 1 83 30
M  V30 89 1 84 4
M  V30 90 1 85 33
M  V30 91 1 86 33
M  V30 92 1 87 34
M  V30 93 1 88 34
M  V30 94 1 89 35
M  V30 95 1 90 35
M  V30 96 1 37 91 CFG=1
M  V30 97 1 38 92 CFG=1
M  V30 98 1 93 41
M  V30 99 1 94 41
M  V30 100 1 95 7
M  V30 101 1 43 96 CFG=1
M  V30 102 1 97 44
M  V30 103 1 98 45
M  V30 104 1 46 99 CFG=1
M  V30 105 1 100 47
M  V30 106 1 101 47
M  V30 END BOND
M  V30 END CTAB
M  END
>  <i_epik_Tot_Q>  (1) 
0

>  <i_epik_Tot_abs_Q>  (1) 
0

>  <i_i_glide_confnum>  (1) 
9019

>  <i_i_glide_lignum>  (1) 
64

>  <i_i_glide_posenum>  (1) 
139

>  <i_i_glide_rotatable_bonds>  (1) 
16

>  <i_lp_mmshare_version>  (1) 
72125

>  <i_m_source_file_index>  (1) 
37

>  <i_f3d_flags>  (1) 
0

>  <num_sample>  (1) 
100

>  <b_lp_Chiralities_Consistent>  (1) 
1

>  <r_epik_Charging_Adjusted_Penalty>  (1) 
0.36853766337093702

>  <r_epik_Ionization_Penalty>  (1) 
0.36853766343244521

>  <r_epik_Ionization_Penalty_Charging>  (1) 
0

>  <r_epik_Ionization_Penalty_Neutral>  (1) 
0.36853766343244521

>  <r_epik_State_Penalty>  (1) 
0.36853766337093702

>  <r_glide_ring_energy>  (1) 
0.90812249233528797

>  <r_i_docking_score>  (1) 
-3.7162142109681828

>  <r_i_glide_ecoul>  (1) 
-1.5472691564841776

>  <r_i_glide_eff_state_penalty>  (1) 
0.36853766337093702

>  <r_i_glide_einternal>  (1) 
16.681672865096694

>  <r_i_glide_emodel>  (1) 
-40.714397765695523

>  <r_i_glide_emodel_strain>  (1) 
1.233945592983531

>  <r_i_glide_energy>  (1) 
-38.309295888915017

>  <r_i_glide_erotb>  (1) 
0.43754787897849062

>  <r_i_glide_esite>  (1) 
-0.00082211676276429705

>  <r_i_glide_evdw>  (1) 
-36.76202673243084

>  <r_i_glide_gscore>  (1) 
-4.08475187433912

>  <r_i_glide_gscore_strain>  (1) 
0

>  <r_i_glide_hbond>  (1) 
0

>  <r_i_glide_ligand_efficiency>  (1) 
-0.077421129395170471

>  <r_i_glide_ligand_efficiency_ln>  (1) 
-0.7628948595318914

>  <r_i_glide_ligand_efficiency_sa>  (1) 
-0.28136705708857196

>  <r_i_glide_lipo>  (1) 
-1.8748957630271652

>  <r_i_glide_metal>  (1) 
-0

>  <r_i_glide_rewards>  (1) 
-0.57639016343351268

>  <r_lp_Energy>  (1) 
26.071289

>  <r_lp_tautomer_probability>  (1) 
0.99994996000200076

>  <s_epik_Chemistry_Notes>  (1) 
This compound contains an acetal/aminal-like group ( X-CH(R)-Y where X, Y are N, S, or O) that may be acid/base labile, releasing an aldehyde.

>  <s_epik_cmdline>  (1) 
J2VwaWtfcHl0aG9uJywgJy1waHQnLCAnMS4wJywgJy1waCcsICc3LjQnLCAnLXRuJywgJzgnLCAnLW1hJywgJzUwMCcsICctaW1hZScsICc8aW5maWxlLm1hZT4nLCAnLW9tYWUnLCAnPG91dGZpbGUubWFlPic=

>  <s_epik_input>  (1) 
W0NIM11DKFtDSF0xKT1bQ0hdW0NIXT1bQ0hdW0NAQEhdMltDSDJdW0NIMl1OKFtDQEhdM0M9MTIpW0NAXShbQ0gzXSkoW0NIMl1bQ0gyXTMpL1tDSF09QyhbT0hdKS9bQ0BIXShbQ0gyXVtDSDJdNClPW0NASF00T1tDQEhdKFtDSF01T081KVtDSDJdW0NIMl1bQ0BIXTZDKD1bQ0gyXSlTW0NASF0oW0NIMl1DKD1PKUMoPVtDSDJdKVtTSF0pW0NASF02T1tDSDJdW0NIMl1bQ0gyXVtDSDNd

>  <s_glide_docking_method>  (1) 
confgen

>  <s_i_glide_gridfile>  (1) 
gpcr_drd2_6luq_protein_autoprepared_prepared

>  <s_lp_Force_Field>  (1) 
S-OPLS

>  <s_lp_Variant>  (1) 
DiffSBDD_36_num_sample_100-1

>  <s_m_source_file>  (1) 
generated__ligand_DiffSBDD_2026-05-06_prepared.sdf

>  <GenAI_Model>  (1) 
DiffSBDD

>  <Protein>  (1) 
generic_title2

$$$$
DiffSBDD_89_num_sample_100
     RDKit          3D

  0  0  0  0  0  0  0  0  0  0999 V3000
M  V30 BEGIN CTAB
M  V30 COUNTS 75 80 0 0 1
M  V30 BEGIN ATOM
M  V30 1 C 5.953198 1.012472 -18.851253 0
M  V30 2 C 5.196020 -1.115631 -20.140352 0
M  V30 3 C 4.883340 -0.067769 -19.058910 0
M  V30 4 C 7.606696 -1.612722 -17.884105 0
M  V30 5 C 5.757100 -3.489122 -20.526379 0 CFG=1
M  V30 6 C 3.436101 -5.884974 -18.800011 0 CFG=2
M  V30 7 C 7.918076 4.097947 -14.087015 0
M  V30 8 C 5.677588 -4.854759 -19.872356 0 CFG=2
M  V30 9 C 8.222234 5.533429 -13.694902 0
M  V30 10 C 7.561136 1.772328 -13.440951 0
M  V30 11 C 5.431133 -6.241560 -20.456927 0
M  V30 12 C 6.327601 -3.322152 -21.930496 0
M  V30 13 C 7.808108 4.821524 -16.527911 0
M  V30 14 C 4.159075 -6.150649 -17.462148 0
M  V30 15 C 7.358861 1.421034 -14.786365 0
M  V30 16 C 4.398805 -4.099935 -20.289282 0 CFG=1
M  V30 17 C 6.355661 -6.126944 -16.173629 0
M  V30 18 C 7.374643 -2.018242 -19.350949 0
M  V30 19 C 7.718918 3.752719 -15.446608 0
M  V30 20 C 6.235977 -4.975778 -18.429395 0
M  V30 21 C 6.649108 1.699732 -20.023372 0
M  V30 22 C 7.943429 -0.129163 -17.677979 0
M  V30 23 C 6.730349 0.819820 -17.539245 0 CFG=1
M  V30 24 C 5.559128 2.420712 -19.302306 0
M  V30 25 C 5.699412 -6.139606 -17.563254 0 CFG=2
M  V30 26 N 5.945991 -2.299388 -19.645389 0 CFG=1 CHG=1
M  V30 27 C 4.044166 -6.761521 -19.950786 0
M  V30 28 C 3.434946 -4.359074 -19.151123 0
M  V30 29 O 7.239040 2.089128 -17.131477 0
M  V30 30 C 7.434839 2.411611 -15.799982 0
M  V30 31 C 7.838508 3.105886 -13.091668 0
M  V30 32 H 5.680322 -0.678703 -21.011864 0
M  V30 33 H 4.234840 -1.470455 -20.504105 0
M  V30 34 H 3.962669 0.435643 -19.358393 0
M  V30 35 H 4.622937 -0.556870 -18.119632 0
M  V30 36 H 8.462088 -2.186270 -17.522375 0
M  V30 37 H 6.780033 -1.912134 -17.238465 0
M  V30 38 H 2.396399 -6.182220 -18.654089 0
M  V30 39 H 8.086679 5.682992 -12.623179 0
M  V30 40 H 9.258075 5.769302 -13.937011 0
M  V30 41 H 7.567493 6.237893 -14.208084 0
M  V30 42 H 7.504304 1.015200 -12.672857 0
M  V30 43 H 6.244062 -6.916697 -20.189835 0
M  V30 44 H 5.435783 -6.198828 -21.546470 0
M  V30 45 H 6.178398 -4.229085 -22.515433 0
M  V30 46 H 5.833305 -2.507323 -22.459346 0
M  V30 47 H 7.398195 -3.121320 -21.897386 0
M  V30 48 H 8.682213 5.455162 -16.377403 0
M  V30 49 H 7.896189 4.394572 -17.526321 0
M  V30 50 H 6.917138 5.449065 -16.508598 0
M  V30 51 H 3.821288 -5.430703 -16.715925 0
M  V30 52 H 3.848184 -7.123459 -17.079070 0
M  V30 53 H 7.149218 0.394020 -15.036732 0
M  V30 54 H 3.926934 -4.346949 -21.240521 0
M  V30 55 H 6.180241 -5.184252 -15.655438 0
M  V30 56 H 5.967806 -6.928447 -15.544678 0
M  V30 57 H 7.434848 -6.258985 -16.248667 0
M  V30 58 H 7.785130 -1.288366 -20.050260 0
M  V30 59 H 7.950431 -2.928809 -19.523291 0
M  V30 60 H 7.320827 -5.061964 -18.498508 0
M  V30 61 H 6.039814 -4.065435 -17.868171 0
M  V30 62 H 7.663899 2.061861 -19.870079 0
M  V30 63 H 6.425892 1.388294 -21.040703 0
M  V30 64 H 8.612856 0.223058 -18.463376 0
M  V30 65 H 8.538978 -0.066042 -16.767810 0
M  V30 66 H 6.020807 0.455033 -16.797361 0
M  V30 67 H 4.634846 2.553355 -19.859796 0
M  V30 68 H 5.841529 3.277376 -18.694770 0
M  V30 69 H 6.005688 -7.083654 -18.012184 0
M  V30 70 H 4.122829 -7.800322 -19.635401 0
M  V30 71 H 3.345086 -6.761360 -20.788150 0
M  V30 72 H 3.663568 -3.728113 -18.291643 0
M  V30 73 H 2.442208 -4.062883 -19.491668 0
M  V30 74 H 7.993849 3.369298 -12.055310 0
M  V30 75 H 5.518743 -2.565504 -18.769346 0
M  V30 END ATOM
M  V30 BEGIN BOND
M  V30 1 1 3 1
M  V30 2 1 3 2
M  V30 3 1 8 5
M  V30 4 1 9 7
M  V30 5 1 8 11 CFG=3
M  V30 6 1 5 12 CFG=3
M  V30 7 1 14 6
M  V30 8 1 15 10
M  V30 9 1 16 5
M  V30 10 1 16 8
M  V30 11 1 18 4
M  V30 12 2 19 7
M  V30 13 1 19 13
M  V30 14 1 20 8
M  V30 15 1 21 1
M  V30 16 1 22 4
M  V30 17 1 23 1
M  V30 18 1 23 22
M  V30 19 1 24 1
M  V30 20 1 24 21
M  V30 21 1 25 14
M  V30 22 1 25 17
M  V30 23 1 25 20
M  V30 24 1 26 2
M  V30 25 1 26 5
M  V30 26 1 26 18
M  V30 27 1 27 6
M  V30 28 1 27 11
M  V30 29 1 28 6
M  V30 30 1 28 16
M  V30 31 1 29 23
M  V30 32 2 30 15
M  V30 33 1 30 19
M  V30 34 1 30 29
M  V30 35 1 31 7
M  V30 36 2 31 10
M  V30 37 1 32 2
M  V30 38 1 33 2
M  V30 39 1 34 3
M  V30 40 1 35 3
M  V30 41 1 36 4
M  V30 42 1 37 4
M  V30 43 1 6 38 CFG=1
M  V30 44 1 39 9
M  V30 45 1 40 9
M  V30 46 1 41 9
M  V30 47 1 42 10
M  V30 48 1 43 11
M  V30 49 1 44 11
M  V30 50 1 45 12
M  V30 51 1 46 12
M  V30 52 1 47 12
M  V30 53 1 48 13
M  V30 54 1 49 13
M  V30 55 1 50 13
M  V30 56 1 51 14
M  V30 57 1 52 14
M  V30 58 1 53 15
M  V30 59 1 16 54 CFG=3
M  V30 60 1 55 17
M  V30 61 1 56 17
M  V30 62 1 57 17
M  V30 63 1 58 18
M  V30 64 1 59 18
M  V30 65 1 60 20
M  V30 66 1 61 20
M  V30 67 1 62 21
M  V30 68 1 63 21
M  V30 69 1 64 22
M  V30 70 1 65 22
M  V30 71 1 23 66 CFG=1
M  V30 72 1 67 24
M  V30 73 1 68 24
M  V30 74 1 25 69 CFG=3
M  V30 75 1 70 27
M  V30 76 1 71 27
M  V30 77 1 72 28
M  V30 78 1 73 28
M  V30 79 1 74 31
M  V30 80 1 26 75 CFG=1
M  V30 END BOND
M  V30 END CTAB
M  END
>  <i_epik_Tot_Q>  (1) 
1

>  <i_epik_Tot_abs_Q>  (1) 
1

>  <i_i_glide_confnum>  (1) 
1

>  <i_i_glide_lignum>  (1) 
179

>  <i_i_glide_posenum>  (1) 
22

>  <i_i_glide_rotatable_bonds>  (1) 
3

>  <i_lp_mmshare_version>  (1) 
72125

>  <i_m_source_file_index>  (1) 
90

>  <i_f3d_flags>  (1) 
0

>  <num_sample>  (1) 
100

>  <b_lp_Chiralities_Consistent>  (1) 
1

>  <r_epik_Charging_Adjusted_Penalty>  (1) 
0.1480359762680355

>  <r_epik_Ionization_Penalty>  (1) 
0.074017988134017734

>  <r_epik_Ionization_Penalty_Charging>  (1) 
0.074017988134017734

>  <r_epik_Ionization_Penalty_Neutral>  (1) 
0

>  <r_epik_State_Penalty>  (1) 
0.074017988134017776

>  <r_glide_ring_energy>  (1) 
0.47314266246867254

>  <r_i_docking_score>  (1) 
-3.7102909335041709

>  <r_i_glide_ecoul>  (1) 
-3.4866239339226861

>  <r_i_glide_eff_state_penalty>  (1) 
0.074017988134017776

>  <r_i_glide_einternal>  (1) 
0.28693647850765025

>  <r_i_glide_emodel>  (1) 
-33.548135709460738

>  <r_i_glide_emodel_strain>  (1) 
0

>  <r_i_glide_energy>  (1) 
-28.38621493366955

>  <r_i_glide_erotb>  (1) 
0.33268982325706958

>  <r_i_glide_esite>  (1) 
0

>  <r_i_glide_evdw>  (1) 
-24.899590999746863

>  <r_i_glide_gscore>  (1) 
-3.7843089216381887

>  <r_i_glide_gscore_strain>  (1) 
0

>  <r_i_glide_hbond>  (1) 
0

>  <r_i_glide_ligand_efficiency>  (1) 
-0.11968680430658615

>  <r_i_glide_ligand_efficiency_ln>  (1) 
-0.83678431226663685

>  <r_i_glide_ligand_efficiency_sa>  (1) 
-0.37598181139526471

>  <r_i_glide_lipo>  (1) 
-1.6218446730013287

>  <r_i_glide_metal>  (1) 
-0

>  <r_i_glide_rewards>  (1) 
-0.72718093181818322

>  <r_lp_Energy>  (1) 
80.633463999999989

>  <r_lp_tautomer_probability>  (1) 
1

>  <s_epik_cmdline>  (1) 
J2VwaWtfcHl0aG9uJywgJy1waHQnLCAnMS4wJywgJy1waCcsICc3LjQnLCAnLXRuJywgJzgnLCAnLW1hJywgJzUwMCcsICctaW1hZScsICc8aW5maWxlLm1hZT4nLCAnLW9tYWUnLCAnPG91dGZpbGUubWFlPic=

>  <s_epik_input>  (1) 
W0NIM11bQ0BIXShbQ0gyXTEpW0NIMl1bQ0BIXShbQ0gyXVtDSDJdMilbQ0gyXVtDQEhdKFtDQEBdMTIzKVtDQEBdMyhbQ0gzXSlOKFtDSDJdW0NIMl1DNDVbQ0gyXVtDSDJdNSlbQ0gyXVtDSDJdW0NIMl1bQ0BIXTRPYyhbY0hdW2NIXVtjSF02KWMoW0NIM10pYzZbQ0gzXQ==

>  <s_glide_docking_method>  (1) 
confgen

>  <s_i_glide_gridfile>  (1) 
gpcr_drd2_6luq_protein_autoprepared_prepared

>  <s_lp_Force_Field>  (1) 
S-OPLS

>  <s_lp_Variant>  (1) 
DiffSBDD_89_num_sample_100-1

>  <s_m_source_file>  (1) 
generated__ligand_DiffSBDD_2026-05-06_prepared.sdf

>  <GenAI_Model>  (1) 
DiffSBDD

>  <Protein>  (1) 
generic_title2

$$$$
DiffSBDD_79_num_sample_100
     RDKit          3D

  0  0  0  0  0  0  0  0  0  0999 V3000
M  V30 BEGIN CTAB
M  V30 COUNTS 54 57 0 0 1
M  V30 BEGIN ATOM
M  V30 1 C 5.295904 -1.096823 -17.530330 0
M  V30 2 C 6.788375 0.473112 -16.219344 0
M  V30 3 O 9.143522 0.303667 -18.988557 0
M  V30 4 C 10.310472 7.643146 -10.530562 0
M  V30 5 C 9.412110 6.662933 -10.449275 0
M  V30 6 C 8.764291 0.713050 -17.868106 0
M  V30 7 C 8.444530 3.138124 -12.921990 0
M  V30 8 C 8.426805 5.663667 -12.692906 0 CFG=1
M  V30 9 C 11.481505 7.800203 -9.641483 0
M  V30 10 C 9.271595 4.446138 -12.935077 0
M  V30 11 S 5.239748 -0.230662 -15.891700 0
M  V30 12 C 10.553360 6.991571 -7.463749 0
M  V30 13 C 9.434837 5.667879 -9.364447 0
M  V30 14 F 10.462615 7.120393 -6.128127 0
M  V30 15 C 7.372224 5.425605 -11.640558 0 CFG=1
M  V30 16 C 11.250696 7.957395 -8.170303 0
M  V30 17 C 8.331866 6.587966 -11.495646 0 CFG=1
M  V30 18 C 6.849883 0.609010 -12.883740 0
M  V30 19 O 9.363453 1.492186 -17.091657 0 CHG=-1
M  V30 20 C 6.617698 -0.734293 -18.315982 0
M  V30 21 C 9.922259 5.811593 -8.095122 0
M  V30 22 C 7.359011 0.181229 -17.377296 0
M  V30 23 C 5.894023 3.760913 -12.687480 0
M  V30 24 N 7.311751 1.290534 -15.214916 0
M  V30 25 O 11.834836 8.991787 -7.781338 0 CHG=-1
M  V30 26 C 6.634860 1.675402 -13.977794 0 CFG=2
M  V30 27 C 6.030808 5.249724 -12.289078 0
M  V30 28 C 7.023950 3.133059 -13.570742 0 CFG=2
M  V30 29 H 4.413670 -0.822931 -18.109164 0
M  V30 30 H 5.243973 -2.171259 -17.352300 0
M  V30 31 H 10.234917 8.351375 -11.341061 0
M  V30 32 H 9.034854 2.356940 -13.387891 0
M  V30 33 H 8.374167 2.819065 -11.891667 0
M  V30 34 H 8.106067 6.127684 -13.624206 0
M  V30 35 H 12.158832 6.969301 -9.811539 0
M  V30 36 H 12.027148 8.655063 -10.050309 0
M  V30 37 H 9.763963 4.569286 -13.900472 0
M  V30 38 H 10.066971 4.393717 -12.190707 0
M  V30 39 H 8.961964 4.725728 -9.566729 0
M  V30 40 H 7.507984 4.648400 -10.901805 0
M  V30 41 H 7.883143 7.565747 -11.662328 0
M  V30 42 H 6.322832 0.866471 -11.965361 0
M  V30 43 H 6.472131 -0.361307 -13.206186 0
M  V30 44 H 7.903286 0.470732 -12.643480 0
M  V30 45 H 6.397685 -0.219645 -19.252181 0
M  V30 46 H 7.210520 -1.622789 -18.534363 0
M  V30 47 H 9.767322 4.969300 -7.447622 0
M  V30 48 H 4.932210 3.637131 -13.185460 0
M  V30 49 H 5.834869 3.177999 -11.768299 0
M  V30 50 H 5.567788 1.689186 -14.166448 0
M  V30 51 H 5.918441 5.907998 -13.150754 0
M  V30 52 H 5.254116 5.524467 -11.573636 0
M  V30 53 H 7.070050 3.723668 -14.486879 0
M  V30 54 H 8.217362 1.716885 -15.384650 0
M  V30 END ATOM
M  V30 BEGIN BOND
M  V30 1 2 5 4
M  V30 2 2 6 3
M  V30 3 1 9 4
M  V30 4 1 10 7
M  V30 5 1 10 8
M  V30 6 1 11 1
M  V30 7 1 11 2
M  V30 8 1 13 5
M  V30 9 1 14 12
M  V30 10 1 15 8
M  V30 11 1 16 9
M  V30 12 2 16 12
M  V30 13 1 17 5
M  V30 14 1 17 8
M  V30 15 1 17 15
M  V30 16 1 19 6
M  V30 17 1 20 1
M  V30 18 1 21 12
M  V30 19 2 21 13
M  V30 20 2 22 2
M  V30 21 1 22 6
M  V30 22 1 22 20
M  V30 23 1 24 2
M  V30 24 1 25 16
M  V30 25 1 26 18
M  V30 26 1 26 24
M  V30 27 1 27 15
M  V30 28 1 27 23
M  V30 29 1 28 7
M  V30 30 1 28 23
M  V30 31 1 28 26
M  V30 32 1 29 1
M  V30 33 1 30 1
M  V30 34 1 31 4
M  V30 35 1 32 7
M  V30 36 1 33 7
M  V30 37 1 8 34 CFG=3
M  V30 38 1 35 9
M  V30 39 1 36 9
M  V30 40 1 37 10
M  V30 41 1 38 10
M  V30 42 1 39 13
M  V30 43 1 15 40 CFG=1
M  V30 44 1 17 41 CFG=3
M  V30 45 1 42 18
M  V30 46 1 43 18
M  V30 47 1 44 18
M  V30 48 1 45 20
M  V30 49 1 46 20
M  V30 50 1 47 21
M  V30 51 1 48 23
M  V30 52 1 49 23
M  V30 53 1 26 50 CFG=3
M  V30 54 1 51 27
M  V30 55 1 52 27
M  V30 56 1 28 53 CFG=3
M  V30 57 1 54 24
M  V30 END BOND
M  V30 END CTAB
M  END
>  <i_epik_Tot_Q>  (1) 
-2

>  <i_epik_Tot_abs_Q>  (1) 
2

>  <i_i_glide_confnum>  (1) 
108

>  <i_i_glide_lignum>  (1) 
161

>  <i_i_glide_posenum>  (1) 
321

>  <i_i_glide_rotatable_bonds>  (1) 
5

>  <i_lp_mmshare_version>  (1) 
72125

>  <i_m_source_file_index>  (1) 
80

>  <i_f3d_flags>  (1) 
0

>  <num_sample>  (1) 
100

>  <b_lp_Chiralities_Consistent>  (1) 
1

>  <r_epik_Charging_Adjusted_Penalty>  (1) 
2.1010309465817274

>  <r_epik_Ionization_Penalty>  (1) 
1.0507665500608381

>  <r_epik_Ionization_Penalty_Charging>  (1) 
1.0507624105285871

>  <r_epik_Ionization_Penalty_Neutral>  (1) 
4.1395322510490374e-06

>  <r_epik_State_Penalty>  (1) 
1.0502685360531403

>  <r_glide_ring_energy>  (1) 
0

>  <r_i_docking_score>  (1) 
-3.7093467994849068

>  <r_i_glide_ecoul>  (1) 
2.5344483481514883

>  <r_i_glide_eff_state_penalty>  (1) 
1.0502685360531403

>  <r_i_glide_einternal>  (1) 
13.100341916598085

>  <r_i_glide_emodel>  (1) 
-35.305410832237321

>  <r_i_glide_emodel_strain>  (1) 
0

>  <r_i_glide_energy>  (1) 
-35.623331205507178

>  <r_i_glide_erotb>  (1) 
0.48233039889226492

>  <r_i_glide_esite>  (1) 
0

>  <r_i_glide_evdw>  (1) 
-38.157779553658663

>  <r_i_glide_gscore>  (1) 
-4.7596153355380473

>  <r_i_glide_gscore_strain>  (1) 
0

>  <r_i_glide_hbond>  (1) 
0

>  <r_i_glide_ligand_efficiency>  (1) 
-0.13247667141017525

>  <r_i_glide_ligand_efficiency_ln>  (1) 
-0.85622615247563472

>  <r_i_glide_ligand_efficiency_sa>  (1) 
-0.40227719943493406

>  <r_i_glide_lipo>  (1) 
-1.8284115075642569

>  <r_i_glide_metal>  (1) 
-0

>  <r_i_glide_rewards>  (1) 
-1.8858125014058449

>  <r_lp_Energy>  (1) 
50.630325999999997

>  <s_epik_cmdline>  (1) 
J2VwaWtfcHl0aG9uJywgJy1waHQnLCAnMS4wJywgJy1waCcsICc3LjQnLCAnLXRuJywgJzgnLCAnLW1hJywgJzUwMCcsICctaW1hZScsICc8aW5maWxlLm1hZT4nLCAnLW9tYWUnLCAnPG91dGZpbGUubWFlPic=

>  <s_epik_input>  (1) 
Tz1DKFtPSF0pW0NASF0xW0NIMl1bQ0gyXVMvQzE9Ti9bQ0BASF0oW0NIM10pW0NASF0oW0NIMl1bQ0gyXTIpW0NIMl1bQ0gyXVtDQEBIXShbQ0BIXTIzKVtDQEhdM0M0PVtDSF1bQ0gyXUMoW09IXSk9QyhGKVtDSF09W0NIXTQ=

>  <s_glide_docking_method>  (1) 
confgen

>  <s_i_glide_gridfile>  (1) 
gpcr_drd2_6luq_protein_autoprepared_prepared

>  <s_lp_Force_Field>  (1) 
S-OPLS

>  <s_lp_Variant>  (1) 
DiffSBDD_79_num_sample_100-2

>  <s_m_source_file>  (1) 
generated__ligand_DiffSBDD_2026-05-06_prepared.sdf

>  <GenAI_Model>  (1) 
DiffSBDD

>  <Protein>  (1) 
generic_title2

$$$$
DiffSBDD_12_num_sample_100
     RDKit          3D

  0  0  0  0  0  0  0  0  0  0999 V3000
M  V30 BEGIN CTAB
M  V30 COUNTS 67 71 0 0 1
M  V30 BEGIN ATOM
M  V30 1 C 6.130816 -0.116840 -15.368010 0
M  V30 2 C 6.762883 1.162963 -15.563216 0
M  V30 3 F 4.835089 -2.175681 -18.669087 0
M  V30 4 O 10.128002 5.365817 -15.143085 0
M  V30 5 C 12.561979 9.136887 -9.805406 0
M  V30 6 C 7.827719 2.898860 -17.037697 0
M  V30 7 C 7.538184 1.424742 -16.849487 0 CFG=2
M  V30 8 F 5.763659 -0.796165 -20.043726 0
M  V30 9 C 9.739052 8.129193 -7.186820 0
M  V30 10 C 5.792780 4.491876 -12.922236 0
M  V30 11 C 5.960647 -1.510147 -18.934338 0
M  V30 12 C 8.739950 4.909313 -10.470501 0 CFG=1
M  V30 13 C 9.916064 7.015721 -6.132998 0
M  V30 14 C 11.376666 6.571735 -6.207677 0
M  V30 15 C 11.401215 9.302248 -8.826399 0
M  V30 16 C 6.359761 -0.620152 -17.765238 0
M  V30 17 C 6.636570 2.132223 -14.631259 0
M  V30 18 C 7.628351 3.791458 -16.055732 0
M  V30 19 O 7.468339 4.988457 -9.882076 0
M  V30 20 O 7.711466 5.522233 -13.866742 0
M  V30 21 C 10.115851 5.691365 -12.282695 0 CFG=1
M  V30 22 C 10.961137 8.011377 -8.123090 0
M  V30 23 C 6.832229 4.471841 -13.845920 0
M  V30 24 F 6.923557 -2.399699 -19.180374 0
M  V30 25 C 9.815784 7.308352 -10.338753 0
M  V30 26 C 12.019300 7.630040 -7.097607 0
M  V30 27 C 8.873379 3.771571 -11.479632 0
M  V30 28 P 9.332140 5.366642 -13.881681 0 CFG=2
M  V30 29 C 9.193384 6.190578 -11.195679 0 CFG=2
M  V30 30 C 10.734379 6.896804 -9.160063 0
M  V30 31 O 5.436369 5.285775 -12.029963 0 CHG=-1
M  V30 32 C 5.947583 -0.961708 -16.400099 0
M  V30 33 C 7.075640 0.513239 -17.974878 0
M  V30 34 N 7.098586 3.451734 -14.806477 0
M  V30 35 C 9.820989 4.228051 -12.538966 0 CFG=1
M  V30 36 H 5.768996 -0.390011 -14.386435 0
M  V30 37 H 12.634615 10.091244 -10.306874 0
M  V30 38 H 13.497358 8.938424 -9.283588 0
M  V30 39 H 12.425746 8.395410 -10.591980 0
M  V30 40 H 8.226163 3.212818 -17.992331 0
M  V30 41 H 8.533976 1.028940 -16.643076 0
M  V30 42 H 9.747500 9.093293 -6.678910 0
M  V30 43 H 8.779728 8.038464 -7.697105 0
M  V30 44 H 5.230921 3.570899 -13.117987 0
M  V30 45 H 9.431109 4.631726 -9.681898 0
M  V30 46 H 9.702742 7.381612 -5.134282 0
M  V30 47 H 9.253626 6.172721 -6.330390 0
M  V30 48 H 11.832484 6.506993 -5.220114 0
M  V30 49 H 11.462496 5.589734 -6.678402 0
M  V30 50 H 10.563611 9.728513 -9.371729 0
M  V30 51 H 11.716097 10.026281 -8.079929 0
M  V30 52 H 6.109786 1.957408 -13.713625 0
M  V30 53 H 7.840153 4.843219 -16.181913 0
M  V30 54 H 7.175173 5.896892 -9.888325 0
M  V30 55 H 11.151139 6.031703 -12.288535 0
M  V30 56 H 10.324113 7.990726 -11.016186 0
M  V30 57 H 9.034909 7.921178 -9.919544 0
M  V30 58 H 12.962050 7.332749 -7.545612 0
M  V30 59 H 12.229482 8.505265 -6.480585 0
M  V30 60 H 9.391908 2.964312 -10.980443 0
M  V30 61 H 7.949075 3.379075 -11.889993 0
M  V30 62 H 8.323381 6.627022 -11.689951 0
M  V30 63 H 10.333898 6.047707 -8.621914 0
M  V30 64 H 11.703345 6.573880 -9.516484 0
M  V30 65 H 5.447279 -1.902859 -16.223075 0
M  V30 66 H 7.377001 0.783210 -18.976188 0
M  V30 67 H 10.612157 3.516127 -12.691606 0
M  V30 END ATOM
M  V30 BEGIN BOND
M  V30 1 1 2 1
M  V30 2 1 7 2
M  V30 3 1 7 6
M  V30 4 1 11 3
M  V30 5 1 11 8
M  V30 6 1 13 9
M  V30 7 1 14 13
M  V30 8 1 15 5
M  V30 9 1 16 11
M  V30 10 2 17 2
M  V30 11 2 18 6
M  V30 12 1 19 12
M  V30 13 1 22 9
M  V30 14 1 22 15
M  V30 15 2 23 10
M  V30 16 1 23 20
M  V30 17 1 24 11
M  V30 18 1 26 14
M  V30 19 1 26 22
M  V30 20 1 27 12
M  V30 21 2 28 4
M  V30 22 1 28 20 CFG=3
M  V30 23 1 28 21
M  V30 24 1 29 12
M  V30 25 1 29 21
M  V30 26 1 29 25
M  V30 27 1 30 22
M  V30 28 1 30 25
M  V30 29 1 31 10
M  V30 30 2 32 1
M  V30 31 1 32 16
M  V30 32 1 33 7
M  V30 33 2 33 16
M  V30 34 1 34 17
M  V30 35 1 34 18
M  V30 36 1 34 23
M  V30 37 1 35 21
M  V30 38 1 35 27
M  V30 39 1 35 28
M  V30 40 1 36 1
M  V30 41 1 37 5
M  V30 42 1 38 5
M  V30 43 1 39 5
M  V30 44 1 40 6
M  V30 45 1 7 41 CFG=1
M  V30 46 1 42 9
M  V30 47 1 43 9
M  V30 48 1 44 10
M  V30 49 1 12 45 CFG=1
M  V30 50 1 46 13
M  V30 51 1 47 13
M  V30 52 1 48 14
M  V30 53 1 49 14
M  V30 54 1 50 15
M  V30 55 1 51 15
M  V30 56 1 52 17
M  V30 57 1 53 18
M  V30 58 1 54 19
M  V30 59 1 21 55 CFG=3
M  V30 60 1 56 25
M  V30 61 1 57 25
M  V30 62 1 58 26
M  V30 63 1 59 26
M  V30 64 1 60 27
M  V30 65 1 61 27
M  V30 66 1 29 62 CFG=3
M  V30 67 1 63 30
M  V30 68 1 64 30
M  V30 69 1 65 32
M  V30 70 1 66 33
M  V30 71 1 35 67 CFG=3
M  V30 END BOND
M  V30 END CTAB
M  END
>  <i_epik_Tot_Q>  (1) 
-1

>  <i_epik_Tot_abs_Q>  (1) 
1

>  <i_i_glide_confnum>  (1) 
438

>  <i_i_glide_lignum>  (1) 
21

>  <i_i_glide_posenum>  (1) 
173

>  <i_i_glide_rotatable_bonds>  (1) 
9

>  <i_lp_mmshare_version>  (1) 
72125

>  <i_m_source_file_index>  (1) 
13

>  <i_f3d_flags>  (1) 
0

>  <num_sample>  (1) 
100

>  <b_lp_Chiralities_Consistent>  (1) 
1

>  <r_epik_Charging_Adjusted_Penalty>  (1) 
6.0913929175536644e-07

>  <r_epik_Ionization_Penalty>  (1) 
7.5242037030438095e-07

>  <r_epik_Ionization_Penalty_Charging>  (1) 
6.0913929175536644e-07

>  <r_epik_Ionization_Penalty_Neutral>  (1) 
1.4328107854901448e-07

>  <r_epik_State_Penalty>  (1) 
-0

>  <r_glide_ring_energy>  (1) 
0.00028320506983089342

>  <r_i_docking_score>  (1) 
-3.7048888516586467

>  <r_i_glide_ecoul>  (1) 
-0.43122018139875351

>  <r_i_glide_eff_state_penalty>  (1) 
-0

>  <r_i_glide_einternal>  (1) 
17.117481666408089

>  <r_i_glide_emodel>  (1) 
-14.353619347621187

>  <r_i_glide_emodel_strain>  (1) 
1.9500672595889625

>  <r_i_glide_energy>  (1) 
-18.956367776664912

>  <r_i_glide_erotb>  (1) 
0.47163652173243925

>  <r_i_glide_esite>  (1) 
-0.0022669151024091003

>  <r_i_glide_evdw>  (1) 
-18.525147595266159

>  <r_i_glide_gscore>  (1) 
-3.7048888516586467

>  <r_i_glide_gscore_strain>  (1) 
0

>  <r_i_glide_hbond>  (1) 
-0.16

>  <r_i_glide_ligand_efficiency>  (1) 
-0.10585396719024705

>  <r_i_glide_ligand_efficiency_ln>  (1) 
-0.8133053285169386

>  <r_i_glide_ligand_efficiency_sa>  (1) 
-0.34625534587582552

>  <r_i_glide_lipo>  (1) 
-2.0282312521343475

>  <r_i_glide_metal>  (1) 
-0

>  <r_i_glide_rewards>  (1) 
-0.99508679918120779

>  <r_lp_Energy>  (1) 
58.565332999999995

>  <r_lp_tautomer_probability>  (1) 
1

>  <s_epik_Chemistry_Notes>  (1) 
This compound has an imine and may undergo hydrolysis.

>  <s_epik_cmdline>  (1) 
J2VwaWtfcHl0aG9uJywgJy1waHQnLCAnMS4wJywgJy1waCcsICc3LjQnLCAnLXRuJywgJzgnLCAnLW1hJywgJzUwMCcsICctaW1hZScsICc8aW5maWxlLm1hZT4nLCAnLW9tYWUnLCAnPG91dGZpbGUubWFlPic=

>  <s_epik_input>  (1) 
W0NIXTE9W0NIXUMoQyhGKShGKUYpPVtDSF1bQ0BASF0oQzE9MilbQ0hdPVtDSF1OKFtDSF0yKVtDQEBIXShbQ0hdPU8pT1tQQF0zKD1PKVtDQEBIXShbQ0BASF0zNClbQ0gyXVtDQEhdKFtPSF0pW0NASF00W0NIMl1bQ0gyXUM1KFtDSDJdW0NIM10pW0NIMl1bQ0gyXVtDSDJdW0NIMl01

>  <s_glide_docking_method>  (1) 
confgen

>  <s_i_glide_gridfile>  (1) 
gpcr_drd2_6luq_protein_autoprepared_prepared

>  <s_lp_Force_Field>  (1) 
S-OPLS

>  <s_lp_Variant>  (1) 
DiffSBDD_12_num_sample_100-2

>  <s_m_source_file>  (1) 
generated__ligand_DiffSBDD_2026-05-06_prepared.sdf

>  <GenAI_Model>  (1) 
DiffSBDD

>  <Protein>  (1) 
generic_title2

$$$$
DiffSBDD_36_num_sample_100
     RDKit          3D

  0  0  0  0  0  0  0  0  0  0999 V3000
M  V30 BEGIN CTAB
M  V30 COUNTS 102 107 0 0 1
M  V30 BEGIN ATOM
M  V30 1 C 6.107452 4.156088 -11.232948 0
M  V30 2 O 7.263363 -0.567371 -20.761977 0
M  V30 3 C 8.005448 2.965091 -17.480361 0
M  V30 4 C 19.217002 5.580664 -19.860590 0
M  V30 5 C 12.310318 2.271958 -18.897457 0 CFG=1
M  V30 6 O 17.040851 3.832373 -20.607344 0
M  V30 7 C 7.656781 -0.506123 -17.997763 0
M  V30 8 C 7.377571 2.998442 -14.656711 0
M  V30 9 C 7.653807 1.629324 -15.347560 0 CFG=1
M  V30 10 C 8.020365 4.193110 -15.307612 0 CFG=1
M  V30 11 C 7.748889 -2.394728 -22.123833 0
M  V30 12 C 5.879868 0.286955 -16.318801 0
M  V30 13 C 8.840426 3.849980 -16.561032 0
M  V30 14 C 6.367638 4.304561 -12.720646 0
M  V30 15 S 15.011089 1.801066 -18.693292 0
M  V30 16 C 6.217255 5.552306 -13.271708 0
M  V30 17 C 10.656667 0.444210 -22.945961 0
M  V30 18 C 6.345476 5.937764 -14.677777 0
M  V30 19 C 15.467009 4.541280 -18.906711 0
M  V30 20 C 8.098413 -0.944097 -21.814598 0 CFG=2
M  V30 21 O 12.476583 4.595610 -19.784123 0
M  V30 22 C 9.541771 6.955074 -20.036203 0
M  V30 23 C 13.363243 1.276247 -18.452947 0
M  V30 24 C 17.901020 5.565660 -19.118068 0
M  V30 25 C 11.300728 5.220012 -19.298386 0
M  V30 26 C 6.709200 0.442332 -15.052944 0
M  V30 27 O 11.629392 1.451093 -23.239298 0
M  V30 28 C 8.258854 6.119540 -19.952705 0
M  V30 29 C 6.814708 0.692416 -17.473435 0 CFG=2
M  V30 30 C 5.972924 1.312627 -18.620649 0
M  V30 31 S 17.584266 6.543365 -17.800093 0
M  V30 32 O 9.431747 -0.895561 -21.414898 0
M  V30 33 C 10.791817 6.146211 -20.411022 0
M  V30 34 C 11.028927 0.541539 -20.374941 0
M  V30 35 C 13.080921 0.091405 -17.891668 0
M  V30 36 N 7.784094 1.645194 -16.840071 0 CFG=1 CHG=1
M  V30 37 C 6.706654 -1.722222 -20.127290 0 CFG=1
M  V30 38 C 13.059586 3.635466 -18.913557 0 CFG=2
M  V30 39 C 16.822806 4.568455 -19.644823 0
M  V30 40 O 12.012296 0.011922 -23.101708 0
M  V30 41 C 11.715700 1.917507 -20.282517 0
M  V30 42 O 6.400634 -2.564424 -17.891208 0
M  V30 43 C 14.522547 3.409979 -19.363298 0 CFG=2
M  V30 44 C 7.100887 5.325373 -15.587366 0
M  V30 45 C 6.691418 3.077667 -13.492136 0
M  V30 46 C 10.040867 0.383929 -21.550506 0 CFG=1
M  V30 47 C 7.414740 -2.925196 -20.751164 0
M  V30 48 C 6.872493 -1.682073 -18.602450 0
M  V30 49 H 5.834758 3.133505 -10.974257 0
M  V30 50 H 7.003310 4.419505 -10.669666 0
M  V30 51 H 5.300292 4.809929 -10.901370 0
M  V30 52 H 7.065279 3.474363 -17.688802 0
M  V30 53 H 8.513276 2.820715 -18.435006 0
M  V30 54 H 19.063177 5.928646 -20.882710 0
M  V30 55 H 19.938453 6.240138 -19.376174 0
M  V30 56 H 11.507473 2.304819 -18.159412 0
M  V30 57 H 8.245525 -0.919642 -17.178041 0
M  V30 58 H 8.634741 1.348869 -14.966485 0
M  V30 59 H 8.735354 4.580370 -14.578819 0
M  V30 60 H 6.868445 -2.415339 -22.767705 0
M  V30 61 H 8.570071 -2.913462 -22.619997 0
M  V30 62 H 5.034917 0.969277 -16.274257 0
M  V30 63 H 5.450506 -0.710271 -16.407339 0
M  V30 64 H 9.150334 4.761436 -17.072209 0
M  V30 65 H 9.768962 3.349094 -16.291902 0
M  V30 66 H 5.914194 6.337372 -12.592655 0
M  V30 67 H 10.002068 0.206710 -23.781830 0
M  V30 68 H 5.787287 6.803481 -15.003449 0
M  V30 69 H 14.979864 5.500984 -19.083632 0
M  V30 70 H 15.620859 4.458399 -17.830485 0
M  V30 71 H 7.920220 -0.309146 -22.684643 0
M  V30 72 H 9.713179 7.465563 -19.091701 0
M  V30 73 H 9.395301 7.738529 -20.780603 0
M  V30 74 H 10.547367 4.474349 -19.045214 0
M  V30 75 H 11.524254 5.789358 -18.394962 0
M  V30 76 H 6.072735 0.504668 -14.174811 0
M  V30 77 H 7.307654 -0.461156 -14.921772 0
M  V30 78 H 7.405788 6.752355 -19.706359 0
M  V30 79 H 8.046005 5.630887 -20.903687 0
M  V30 80 H 8.327746 5.348736 -19.188201 0
M  V30 81 H 5.246379 0.599490 -19.011060 0
M  V30 82 H 5.391458 2.172855 -18.291465 0
M  V30 83 H 6.594016 1.630953 -19.458366 0
M  V30 84 H 19.642170 4.576480 -19.894667 0
M  V30 85 H 11.590743 6.843363 -20.665571 0
M  V30 86 H 10.599179 5.567878 -21.315228 0
M  V30 87 H 11.784723 -0.241496 -20.421216 0
M  V30 88 H 10.472225 0.371697 -19.454068 0
M  V30 89 H 12.059999 -0.221875 -17.733914 0
M  V30 90 H 13.869343 -0.578942 -17.581294 0
M  V30 91 H 5.643840 -1.753732 -20.369713 0
M  V30 92 H 13.080560 4.028994 -17.894743 0
M  V30 93 H 10.986958 2.679186 -20.558718 0
M  V30 94 H 12.509439 1.975983 -21.026219 0
M  V30 95 H 8.384198 -0.156009 -18.728615 0
M  V30 96 H 14.526042 3.320396 -20.450599 0
M  V30 97 H 7.110353 5.709671 -16.597651 0
M  V30 98 H 6.355621 2.152523 -13.060960 0
M  V30 99 H 9.289861 1.172556 -21.467796 0
M  V30 100 H 8.330641 -3.176043 -20.212333 0
M  V30 101 H 6.781606 -3.812426 -20.784902 0
M  V30 102 H 8.669793 1.180851 -16.978357 0
M  V30 END ATOM
M  V30 BEGIN BOND
M  V30 1 1 9 8
M  V30 2 1 10 8
M  V30 3 1 13 3
M  V30 4 1 13 10
M  V30 5 1 14 1
M  V30 6 2 16 14
M  V30 7 1 18 16
M  V30 8 1 20 2
M  V30 9 1 20 11
M  V30 10 1 23 5
M  V30 11 1 23 15
M  V30 12 1 24 4
M  V30 13 1 25 21
M  V30 14 1 26 9
M  V30 15 1 26 12
M  V30 16 1 27 17
M  V30 17 1 28 22
M  V30 18 1 29 7 CFG=3
M  V30 19 1 29 12
M  V30 20 1 30 29
M  V30 21 2 31 24
M  V30 22 1 32 20
M  V30 23 1 33 22
M  V30 24 1 33 25
M  V30 25 2 35 23
M  V30 26 1 36 3
M  V30 27 1 36 9
M  V30 28 1 36 29
M  V30 29 1 37 2
M  V30 30 1 38 5
M  V30 31 1 38 21
M  V30 32 2 39 6
M  V30 33 1 39 19
M  V30 34 1 39 24
M  V30 35 1 40 17
M  V30 36 1 40 27
M  V30 37 1 41 5
M  V30 38 1 41 34
M  V30 39 1 43 15
M  V30 40 1 43 19
M  V30 41 1 43 38
M  V30 42 1 44 10
M  V30 43 2 44 18
M  V30 44 2 45 8
M  V30 45 1 45 14
M  V30 46 1 46 17
M  V30 47 1 46 32
M  V30 48 1 46 34
M  V30 49 1 47 11
M  V30 50 1 47 37
M  V30 51 1 48 7
M  V30 52 1 48 37
M  V30 53 2 48 42
M  V30 54 1 49 1
M  V30 55 1 50 1
M  V30 56 1 51 1
M  V30 57 1 52 3
M  V30 58 1 53 3
M  V30 59 1 54 4
M  V30 60 1 55 4
M  V30 61 1 5 56 CFG=1
M  V30 62 1 57 7
M  V30 63 1 9 58 CFG=1
M  V30 64 1 10 59 CFG=1
M  V30 65 1 60 11
M  V30 66 1 61 11
M  V30 67 1 62 12
M  V30 68 1 63 12
M  V30 69 1 64 13
M  V30 70 1 65 13
M  V30 71 1 66 16
M  V30 72 1 67 17
M  V30 73 1 68 18
M  V30 74 1 69 19
M  V30 75 1 70 19
M  V30 76 1 20 71 CFG=3
M  V30 77 1 72 22
M  V30 78 1 73 22
M  V30 79 1 74 25
M  V30 80 1 75 25
M  V30 81 1 76 26
M  V30 82 1 77 26
M  V30 83 1 78 28
M  V30 84 1 79 28
M  V30 85 1 80 28
M  V30 86 1 81 30
M  V30 87 1 82 30
M  V30 88 1 83 30
M  V30 89 1 84 4
M  V30 90 1 85 33
M  V30 91 1 86 33
M  V30 92 1 87 34
M  V30 93 1 88 34
M  V30 94 1 89 35
M  V30 95 1 90 35
M  V30 96 1 37 91 CFG=1
M  V30 97 1 38 92 CFG=1
M  V30 98 1 93 41
M  V30 99 1 94 41
M  V30 100 1 95 7
M  V30 101 1 43 96 CFG=3
M  V30 102 1 97 44
M  V30 103 1 98 45
M  V30 104 1 46 99 CFG=3
M  V30 105 1 100 47
M  V30 106 1 101 47
M  V30 107 1 36 102 CFG=1
M  V30 END BOND
M  V30 END CTAB
M  END
>  <i_epik_Tot_Q>  (1) 
1

>  <i_epik_Tot_abs_Q>  (1) 
1

>  <i_i_glide_confnum>  (1) 
4509

>  <i_i_glide_lignum>  (1) 
65

>  <i_i_glide_posenum>  (1) 
214

>  <i_i_glide_rotatable_bonds>  (1) 
16

>  <i_lp_mmshare_version>  (1) 
72125

>  <i_m_source_file_index>  (1) 
37

>  <i_f3d_flags>  (1) 
0

>  <num_sample>  (1) 
100

>  <b_lp_Chiralities_Consistent>  (1) 
1

>  <r_epik_Charging_Adjusted_Penalty>  (1) 
0.91210119875661555

>  <r_epik_Ionization_Penalty>  (1) 
0.45605060116919061

>  <r_epik_Ionization_Penalty_Charging>  (1) 
0.45605059937830777

>  <r_epik_Ionization_Penalty_Neutral>  (1) 
1.7908828364046034e-09

>  <r_epik_State_Penalty>  (1) 
0.45605059937830777

>  <r_glide_ring_energy>  (1) 
0.90833713593568233

>  <r_i_docking_score>  (1) 
-3.699877628755583

>  <r_i_glide_ecoul>  (1) 
-0.60008855893892576

>  <r_i_glide_eff_state_penalty>  (1) 
0.45605059937830777

>  <r_i_glide_einternal>  (1) 
11.891767863731918

>  <r_i_glide_emodel>  (1) 
-44.626932547320223

>  <r_i_glide_emodel_strain>  (1) 
0.055424717845795612

>  <r_i_glide_energy>  (1) 
-39.8935078534467

>  <r_i_glide_erotb>  (1) 
0.43548923687221863

>  <r_i_glide_esite>  (1) 
-0.0051761819723999229

>  <r_i_glide_evdw>  (1) 
-39.293419294507771

>  <r_i_glide_gscore>  (1) 
-4.1559282281338907

>  <r_i_glide_gscore_strain>  (1) 
0

>  <r_i_glide_hbond>  (1) 
0

>  <r_i_glide_ligand_efficiency>  (1) 
-0.077080783932407984

>  <r_i_glide_ligand_efficiency_ln>  (1) 
-0.75954115226831964

>  <r_i_glide_ligand_efficiency_sa>  (1) 
-0.28013015959044651

>  <r_i_glide_lipo>  (1) 
-2.1390202426948903

>  <r_i_glide_metal>  (1) 
-0

>  <r_i_glide_rewards>  (1) 
-0.39253679177259165

>  <r_lp_Energy>  (1) 
28.938099999999999

>  <r_lp_tautomer_probability>  (1) 
0.99994996000200076

>  <s_epik_Chemistry_Notes>  (1) 
This compound contains an acetal/aminal-like group ( X-CH(R)-Y where X, Y are N, S, or O) that may be acid/base labile, releasing an aldehyde.

>  <s_epik_cmdline>  (1) 
J2VwaWtfcHl0aG9uJywgJy1waHQnLCAnMS4wJywgJy1waCcsICc3LjQnLCAnLXRuJywgJzgnLCAnLW1hJywgJzUwMCcsICctaW1hZScsICc8aW5maWxlLm1hZT4nLCAnLW9tYWUnLCAnPG91dGZpbGUubWFlPic=

>  <s_epik_input>  (1) 
W0NIM11DKFtDSF0xKT1bQ0hdW0NIXT1bQ0hdW0NAQEhdMltDSDJdW0NIMl1OKFtDQEhdM0M9MTIpW0NAXShbQ0gzXSkoW0NIMl1bQ0gyXTMpL1tDSF09QyhbT0hdKS9bQ0BIXShbQ0gyXVtDSDJdNClPW0NASF00T1tDQEhdKFtDSF01T081KVtDSDJdW0NIMl1bQ0BIXTZDKD1bQ0gyXSlTW0NASF0oW0NIMl1DKD1PKUMoPVtDSDJdKVtTSF0pW0NASF02T1tDSDJdW0NIMl1bQ0gyXVtDSDNd

>  <s_glide_docking_method>  (1) 
confgen

>  <s_i_glide_gridfile>  (1) 
gpcr_drd2_6luq_protein_autoprepared_prepared

>  <s_lp_Force_Field>  (1) 
S-OPLS

>  <s_lp_Variant>  (1) 
DiffSBDD_36_num_sample_100-2

>  <s_m_source_file>  (1) 
generated__ligand_DiffSBDD_2026-05-06_prepared.sdf

>  <GenAI_Model>  (1) 
DiffSBDD

>  <Protein>  (1) 
generic_title2

$$$$
DiffSBDD_42_num_sample_100
     RDKit          3D

  0  0  0  0  0  0  0  0  0  0999 V3000
M  V30 BEGIN CTAB
M  V30 COUNTS 44 45 0 0 1
M  V30 BEGIN ATOM
M  V30 1 C 9.262111 6.150919 -10.008356 0 CFG=2
M  V30 2 O 10.769770 7.769281 -10.960761 0
M  V30 3 N 9.434809 4.830635 -14.127555 0
M  V30 4 C 6.800810 1.195499 -13.348411 0
M  V30 5 C 10.581539 5.241137 -17.470652 0
M  V30 6 O 10.483180 5.071522 -16.067548 0
M  V30 7 C 7.736500 2.313872 -13.727566 0 CFG=1
M  V30 8 N 10.564293 7.776893 -8.638749 0
M  V30 9 C 8.426615 5.714175 -12.167965 0 CFG=2
M  V30 10 C 9.259571 5.997575 -7.530782 0
M  V30 11 C 8.218645 3.334382 -12.708856 0
M  V30 12 C 7.434937 7.523794 -13.307746 0
M  V30 13 O 9.422835 5.428376 -11.230434 0
M  V30 14 C 10.280901 7.318588 -9.929949 0
M  V30 15 C 9.277219 4.969294 -15.494931 0
M  V30 16 N 8.380767 4.701063 -13.224156 0
M  V30 17 C 10.468262 7.809010 -6.199245 0
M  V30 18 O 8.211087 4.999027 -16.111985 0
M  V30 19 C 9.331631 5.199410 -8.822776 0
M  V30 20 N 8.234838 0.994159 -13.384860 0
M  V30 21 O 8.591771 6.991596 -12.691511 0
M  V30 22 C 10.134665 7.239080 -7.559549 0
M  V30 23 H 8.267152 6.569294 -9.988660 0
M  V30 24 H 10.381460 4.820006 -13.762883 0
M  V30 25 H 6.323669 1.227539 -12.370923 0
M  V30 26 H 6.214532 0.726849 -14.136544 0
M  V30 27 H 11.629876 5.290595 -17.764410 0
M  V30 28 H 10.118700 4.405564 -17.997435 0
M  V30 29 H 10.095637 6.165543 -17.785100 0
M  V30 30 H 7.807932 2.594092 -14.776169 0
M  V30 31 H 7.449145 5.634865 -11.685150 0
M  V30 32 H 9.546305 5.369315 -6.692180 0
M  V30 33 H 8.234846 6.312454 -7.347793 0
M  V30 34 H 9.166060 3.009883 -12.273421 0
M  V30 35 H 7.495172 3.369292 -11.894050 0
M  V30 36 H 7.688306 8.495261 -13.727193 0
M  V30 37 H 7.074237 6.894422 -14.121954 0
M  V30 38 H 6.632407 7.660309 -12.581720 0
M  V30 39 H 9.560593 7.910760 -5.606301 0
M  V30 40 H 11.156801 7.148739 -5.671955 0
M  V30 41 H 10.930230 8.792565 -6.291862 0
M  V30 42 H 8.487694 4.514293 -8.861562 0
M  V30 43 H 10.234845 4.596465 -8.853638 0
M  V30 44 H 8.722407 0.913359 -12.497923 0
M  V30 END ATOM
M  V30 BEGIN BOND
M  V30 1 1 6 5
M  V30 2 1 7 4
M  V30 3 1 11 7
M  V30 4 1 13 1
M  V30 5 1 13 9
M  V30 6 1 14 1
M  V30 7 2 14 2
M  V30 8 1 14 8
M  V30 9 1 15 3
M  V30 10 1 15 6
M  V30 11 1 16 3
M  V30 12 1 16 9
M  V30 13 1 16 11
M  V30 14 2 18 15
M  V30 15 1 19 1
M  V30 16 1 19 10
M  V30 17 1 20 4
M  V30 18 1 20 7
M  V30 19 1 21 9
M  V30 20 1 21 12
M  V30 21 2 22 8
M  V30 22 1 22 10
M  V30 23 1 22 17
M  V30 24 1 1 23 CFG=3
M  V30 25 1 24 3
M  V30 26 1 25 4
M  V30 27 1 26 4
M  V30 28 1 27 5
M  V30 29 1 28 5
M  V30 30 1 29 5
M  V30 31 1 7 30 CFG=3
M  V30 32 1 9 31 CFG=1
M  V30 33 1 32 10
M  V30 34 1 33 10
M  V30 35 1 34 11
M  V30 36 1 35 11
M  V30 37 1 36 12
M  V30 38 1 37 12
M  V30 39 1 38 12
M  V30 40 1 39 17
M  V30 41 1 40 17
M  V30 42 1 41 17
M  V30 43 1 42 19
M  V30 44 1 43 19
M  V30 45 1 44 20
M  V30 END BOND
M  V30 END CTAB
M  END
>  <i_epik_Tot_Q>  (1) 
0

>  <i_epik_Tot_abs_Q>  (1) 
0

>  <i_i_glide_confnum>  (1) 
336

>  <i_i_glide_lignum>  (1) 
74

>  <i_i_glide_posenum>  (1) 
208

>  <i_i_glide_rotatable_bonds>  (1) 
9

>  <i_lp_mmshare_version>  (1) 
72125

>  <i_m_source_file_index>  (1) 
43

>  <i_f3d_flags>  (1) 
0

>  <num_sample>  (1) 
100

>  <b_lp_Chiralities_Consistent>  (1) 
1

>  <r_epik_Charging_Adjusted_Penalty>  (1) 
0.73434514420425445

>  <r_epik_Ionization_Penalty>  (1) 
0.73524222016862195

>  <r_epik_Ionization_Penalty_Charging>  (1) 
0

>  <r_epik_Ionization_Penalty_Neutral>  (1) 
0.73524222016862195

>  <r_epik_State_Penalty>  (1) 
0.73434514420425445

>  <r_glide_ring_energy>  (1) 
0.0014600404396934196

>  <r_i_docking_score>  (1) 
-3.6986238148127026

>  <r_i_glide_ecoul>  (1) 
-6.3094085583484905

>  <r_i_glide_eff_state_penalty>  (1) 
0.73434514420425445

>  <r_i_glide_einternal>  (1) 
7.0268781806525897

>  <r_i_glide_emodel>  (1) 
-38.774195398740595

>  <r_i_glide_emodel_strain>  (1) 
1.3571583006175132

>  <r_i_glide_energy>  (1) 
-33.378832654756984

>  <r_i_glide_erotb>  (1) 
1.1286281717494191

>  <r_i_glide_esite>  (1) 
-0.081283034618369734

>  <r_i_glide_evdw>  (1) 
-27.069424096408493

>  <r_i_glide_gscore>  (1) 
-4.4329689590169572

>  <r_i_glide_gscore_strain>  (1) 
0

>  <r_i_glide_hbond>  (1) 
-0.59622043320567386

>  <r_i_glide_ligand_efficiency>  (1) 
-0.16811926430966831

>  <r_i_glide_ligand_efficiency_ln>  (1) 
-0.90407857092182486

>  <r_i_glide_ligand_efficiency_sa>  (1) 
-0.47107679083653914

>  <r_i_glide_lipo>  (1) 
-0.89692879118726643

>  <r_i_glide_metal>  (1) 
-0

>  <r_i_glide_rewards>  (1) 
-1.6872823831823685

>  <r_lp_Energy>  (1) 
12.752139999999999

>  <s_epik_Chemistry_Notes>  (1) 
This compound has an ester and may undergo hydrolysis at high or low pH. This compound has an imine and may undergo hydrolysis. This compound contains an acetal/aminal-like group ( X-CH(R)-Y where X, Y are N, S, or O) that may be acid/base labile, releasing an aldehyde.

>  <s_epik_cmdline>  (1) 
J2VwaWtfcHl0aG9uJywgJy1waHQnLCAnMS4wJywgJy1waCcsICc3LjQnLCAnLXRuJywgJzgnLCAnLW1hJywgJzUwMCcsICctaW1hZScsICc8aW5maWxlLm1hZT4nLCAnLW9tYWUnLCAnPG91dGZpbGUubWFlPic=

>  <s_epik_input>  (1) 
W0NIMl0xW0NIMl1DKFtDSDNdKT1OQyg9TylbQ0BIXTFPW0NAQEhdKE9bQ0gzXSlOKFtOSF1DKD1PKU9bQ0gzXSlbQ0gyXVtDQEBIXTJbQ0gyXVtOSF0y

>  <s_glide_docking_method>  (1) 
confgen

>  <s_i_glide_gridfile>  (1) 
gpcr_drd2_6luq_protein_autoprepared_prepared

>  <s_lp_Force_Field>  (1) 
S-OPLS

>  <s_lp_Variant>  (1) 
DiffSBDD_42_num_sample_100-2

>  <s_m_source_file>  (1) 
generated__ligand_DiffSBDD_2026-05-06_prepared.sdf

>  <GenAI_Model>  (1) 
DiffSBDD

>  <Protein>  (1) 
generic_title2

$$$$
DiffSBDD_77_num_sample_100
     RDKit          3D

  0  0  0  0  0  0  0  0  0  0999 V3000
M  V30 BEGIN CTAB
M  V30 COUNTS 44 46 0 0 1
M  V30 BEGIN ATOM
M  V30 1 C 7.938943 5.666631 -11.291631 0
M  V30 2 C 10.400173 7.258440 -8.985311 0 CFG=1
M  V30 3 N 10.156830 7.857746 -7.676448 0
M  V30 4 S 5.834846 6.079880 -12.979156 0
M  V30 5 C 9.383754 6.170161 -9.254198 0 CFG=1
M  V30 6 C 9.321059 6.109538 -10.777994 0 CFG=2
M  V30 7 O 7.434860 6.365519 -18.078851 0
M  V30 8 C 11.097225 8.523593 -6.996895 0
M  V30 9 C 6.666784 5.356010 -17.521974 0 CFG=1
M  V30 10 C 8.637475 5.747501 -18.513716 0
M  V30 11 O 9.651236 7.422202 -11.214207 0
M  V30 12 N 10.225178 8.169302 -10.102818 0
M  V30 13 C 8.533990 4.321827 -17.962119 0 CFG=2
M  V30 14 C 5.434941 7.557713 -11.995911 0
M  V30 15 C 7.638140 5.937915 -12.780632 0 CFG=2
M  V30 16 F 10.294413 4.293546 -16.401854 0
M  V30 17 O 7.136143 4.147096 -17.999262 0
M  V30 18 O 10.804273 9.009035 -5.884434 0 CHG=-1
M  V30 19 S 8.467111 4.678030 -13.806840 0
M  V30 20 O 9.810771 4.953480 -8.691651 0
M  V30 21 C 8.290369 5.202606 -15.558771 0 CFG=2
M  V30 22 C 6.820575 5.376911 -15.982674 0
M  V30 23 C 8.969655 4.170139 -16.489499 0
M  V30 24 O 12.239812 8.642853 -7.491298 0
M  V30 25 F 8.634840 2.930471 -16.121641 0
M  V30 26 H 7.793175 4.608589 -11.070928 0
M  V30 27 H 7.190552 6.169301 -10.691645 0
M  V30 28 H 11.408179 6.844623 -9.055503 0
M  V30 29 H 9.233030 7.769360 -7.279199 0
M  V30 30 H 8.425311 6.427139 -8.810770 0
M  V30 31 H 10.088453 5.447664 -11.177693 0
M  V30 32 H 5.624411 5.484644 -17.815748 0
M  V30 33 H 8.647894 5.737180 -19.604089 0
M  V30 34 H 9.526073 6.275102 -18.167565 0
M  V30 35 H 11.130137 8.491323 -10.414009 0
M  V30 36 H 9.041164 3.595067 -18.597608 0
M  V30 37 H 4.634840 8.133674 -12.460796 0
M  V30 38 H 5.098093 7.266304 -11.001605 0
M  V30 39 H 6.307324 8.202455 -11.891667 0
M  V30 40 H 8.050380 6.905067 -13.068481 0
M  V30 41 H 9.955028 5.105012 -7.769687 0
M  V30 42 H 8.789809 6.164628 -15.669293 0
M  V30 43 H 6.232201 4.568997 -15.557649 0
M  V30 44 H 6.421391 6.325115 -15.626979 0
M  V30 END ATOM
M  V30 BEGIN BOND
M  V30 1 1 3 2
M  V30 2 1 5 2
M  V30 3 1 6 1
M  V30 4 1 6 5
M  V30 5 1 8 3
M  V30 6 1 9 7
M  V30 7 1 10 7
M  V30 8 1 11 6
M  V30 9 1 12 2
M  V30 10 1 12 11
M  V30 11 1 13 10
M  V30 12 1 14 4
M  V30 13 1 15 1
M  V30 14 1 15 4
M  V30 15 1 17 9
M  V30 16 1 17 13
M  V30 17 1 18 8
M  V30 18 1 19 15
M  V30 19 1 20 5
M  V30 20 1 21 19
M  V30 21 1 22 9
M  V30 22 1 22 21
M  V30 23 1 23 13
M  V30 24 1 23 16
M  V30 25 1 23 21
M  V30 26 2 24 8
M  V30 27 1 25 23
M  V30 28 1 26 1
M  V30 29 1 27 1
M  V30 30 1 2 28 CFG=1
M  V30 31 1 29 3
M  V30 32 1 5 30 CFG=1
M  V30 33 1 6 31 CFG=3
M  V30 34 1 9 32 CFG=1
M  V30 35 1 33 10
M  V30 36 1 34 10
M  V30 37 1 35 12
M  V30 38 1 13 36 CFG=3
M  V30 39 1 37 14
M  V30 40 1 38 14
M  V30 41 1 39 14
M  V30 42 1 15 40 CFG=3
M  V30 43 1 41 20
M  V30 44 1 21 42 CFG=1
M  V30 45 1 43 22
M  V30 46 1 44 22
M  V30 END BOND
M  V30 END CTAB
M  END
>  <i_epik_Tot_Q>  (1) 
-1

>  <i_epik_Tot_abs_Q>  (1) 
1

>  <i_i_glide_confnum>  (1) 
105

>  <i_i_glide_lignum>  (1) 
158

>  <i_i_glide_posenum>  (1) 
384

>  <i_i_glide_rotatable_bonds>  (1) 
8

>  <i_lp_mmshare_version>  (1) 
72125

>  <i_m_source_file_index>  (1) 
78

>  <i_f3d_flags>  (1) 
0

>  <num_sample>  (1) 
100

>  <b_lp_Chiralities_Consistent>  (1) 
1

>  <r_epik_Charging_Adjusted_Penalty>  (1) 
0.0018659666509244193

>  <r_epik_Ionization_Penalty>  (1) 
0.0021781486112202567

>  <r_epik_Ionization_Penalty_Charging>  (1) 
0.0018659666509244193

>  <r_epik_Ionization_Penalty_Neutral>  (1) 
0.00031218196029583734

>  <r_epik_State_Penalty>  (1) 
-0

>  <r_glide_ring_energy>  (1) 
0

>  <r_i_docking_score>  (1) 
-3.6967838765784546

>  <r_i_glide_ecoul>  (1) 
-1.8897696591886837

>  <r_i_glide_eff_state_penalty>  (1) 
-0

>  <r_i_glide_einternal>  (1) 
5.9612019993350129

>  <r_i_glide_emodel>  (1) 
-28.297965316962866

>  <r_i_glide_emodel_strain>  (1) 
3.9533542286487275

>  <r_i_glide_energy>  (1) 
-28.909441613815943

>  <r_i_glide_erotb>  (1) 
0.48685992460838567

>  <r_i_glide_esite>  (1) 
-0.2101684819655695

>  <r_i_glide_evdw>  (1) 
-27.01967195462726

>  <r_i_glide_gscore>  (1) 
-3.6967838765784546

>  <r_i_glide_gscore_strain>  (1) 
0

>  <r_i_glide_hbond>  (1) 
0

>  <r_i_glide_ligand_efficiency>  (1) 
-0.1478713550631382

>  <r_i_glide_ligand_efficiency_ln>  (1) 
-0.87624856242218108

>  <r_i_glide_ligand_efficiency_sa>  (1) 
-0.43237846517818901

>  <r_i_glide_lipo>  (1) 
-0.52938578099183986

>  <r_i_glide_metal>  (1) 
-0

>  <r_i_glide_rewards>  (1) 
-1.8096404916197648

>  <r_lp_Energy>  (1) 
-9.4210519999999995

>  <r_lp_tautomer_probability>  (1) 
1

>  <s_epik_Chemistry_Notes>  (1) 
This compound contains an acetal/aminal-like group ( X-CH(R)-Y where X, Y are N, S, or O) that may be acid/base labile, releasing an aldehyde. This compound has a N-S or N-O group and may undergo hydrolysis at high or low pH.

>  <s_epik_cmdline>  (1) 
J2VwaWtfcHl0aG9uJywgJy1waHQnLCAnMS4wJywgJy1waCcsICc3LjQnLCAnLXRuJywgJzgnLCAnLW1hJywgJzUwMCcsICctaW1hZScsICc8aW5maWxlLm1hZT4nLCAnLW9tYWUnLCAnPG91dGZpbGUubWFlPic=

>  <s_epik_input>  (1) 
W09IXUMoPU8pW05IXVtDQEhdMVtDQEhdKFtPSF0pW0NASF0oT1tOSF0xKVtDSDJdW0NASF0oU1tDSDNdKVNbQ0BIXShbQ0gyXTIpQyhGKShGKVtDQEBIXShPMylbQ0gyXU9bQ0BIXTIz

>  <s_glide_docking_method>  (1) 
confgen

>  <s_i_glide_gridfile>  (1) 
gpcr_drd2_6luq_protein_autoprepared_prepared

>  <s_lp_Force_Field>  (1) 
S-OPLS

>  <s_lp_Variant>  (1) 
DiffSBDD_77_num_sample_100-1

>  <s_m_source_file>  (1) 
generated__ligand_DiffSBDD_2026-05-06_prepared.sdf

>  <GenAI_Model>  (1) 
DiffSBDD

>  <Protein>  (1) 
generic_title2

$$$$
DiffSBDD_82_num_sample_100
     RDKit          3D

  0  0  0  0  0  0  0  0  0  0999 V3000
M  V30 BEGIN CTAB
M  V30 COUNTS 64 68 0 0 1
M  V30 BEGIN ATOM
M  V30 1 C 10.226505 6.902479 -8.821101 0
M  V30 2 N 7.106934 2.356015 -19.872417 0
M  V30 3 C 7.834844 7.419924 -13.206816 0
M  V30 4 C 8.796759 4.646497 -10.062571 0
M  V30 5 O 7.085470 3.961240 -12.220137 0
M  V30 6 C 9.577259 5.673805 -8.188984 0
M  V30 7 O 7.537771 0.125990 -19.887838 0
M  V30 8 C 7.180914 4.863875 -15.502381 0 CFG=2
M  V30 9 C 9.284519 5.132176 -17.037668 0
M  V30 10 C 7.615853 0.112866 -17.487196 0
M  V30 11 F 11.434987 6.835505 -6.742520 0
M  V30 12 C 7.980565 3.072113 -17.781342 0 CFG=1
M  V30 13 C 7.254101 2.449329 -16.562028 0 CFG=1
M  V30 14 F 7.042730 0.533943 -15.239780 0
M  V30 15 C 7.750349 1.015993 -16.264636 0
M  V30 16 F 10.658533 8.569289 -10.341105 0
M  V30 17 C 6.400561 5.672213 -14.404345 0 CFG=2
M  V30 18 C 8.472657 5.622849 -11.134587 0
M  V30 19 C 5.641929 6.844022 -15.065196 0
M  V30 20 C 9.034396 6.937081 -11.121186 0
M  V30 21 C 7.609962 5.224487 -12.196743 0
M  V30 22 O 11.130103 7.510504 -7.989212 0
M  V30 23 C 6.883881 1.211189 -20.386977 0
M  V30 24 C 8.188489 0.667678 -18.788544 0 CFG=2
M  V30 25 C 7.182979 3.329665 -15.282347 0
M  V30 26 C 7.300482 6.121489 -13.233104 0
M  V30 27 C 5.932139 0.946381 -21.503402 0
M  V30 28 C 9.369957 3.667685 -17.486277 0
M  V30 29 N 8.001638 2.120045 -18.892180 0
M  V30 30 C 7.005726 -1.084415 -17.429650 0
M  V30 31 C 9.979789 7.449313 -10.048624 0
M  V30 32 C 8.638191 5.354112 -15.664507 0
M  V30 33 F 9.023020 1.065209 -15.891527 0
M  V30 34 C 8.698832 7.818046 -12.173393 0
M  V30 35 N 8.387716 5.146777 -8.785799 0
M  V30 36 H 7.603047 8.115587 -13.996362 0
M  V30 37 H 9.834810 4.318208 -10.117161 0
M  V30 38 H 8.203915 3.769315 -10.259649 0
M  V30 39 H 6.553973 3.797038 -12.982155 0
M  V30 40 H 10.329019 4.892666 -8.088114 0
M  V30 41 H 9.288477 5.944751 -7.173288 0
M  V30 42 H 6.641386 5.042893 -16.431539 0
M  V30 43 H 10.292733 5.547243 -17.011085 0
M  V30 44 H 8.751385 5.716044 -17.788569 0
M  V30 45 H 7.364812 3.905009 -18.122961 0
M  V30 46 H 6.234905 2.299387 -16.902844 0
M  V30 47 H 5.610105 5.045460 -13.991047 0
M  V30 48 H 5.114033 7.447026 -14.325848 0
M  V30 49 H 4.903538 6.473908 -15.776691 0
M  V30 50 H 6.306831 7.503534 -15.623741 0
M  V30 51 H 9.257697 0.459707 -18.835085 0
M  V30 52 H 6.289232 3.031881 -14.735238 0
M  V30 53 H 8.008567 3.066232 -14.620818 0
M  V30 54 H 5.641673 1.866977 -22.009773 0
M  V30 55 H 5.034810 0.487488 -21.091717 0
M  V30 56 H 6.363688 0.268194 -22.239041 0
M  V30 57 H 9.928848 3.077696 -16.762395 0
M  V30 58 H 9.963075 3.647750 -18.401734 0
M  V30 59 H 6.594959 -1.455583 -16.503525 0
M  V30 60 H 6.910133 -1.705503 -18.307988 0
M  V30 61 H 8.634778 6.421068 -15.491650 0
M  V30 62 H 9.277255 4.937489 -14.883819 0
M  V30 63 H 9.107929 8.816597 -12.184147 0
M  V30 64 H 7.727216 5.914432 -8.909278 0
M  V30 END ATOM
M  V30 BEGIN BOND
M  V30 1 1 6 1
M  V30 2 1 13 12
M  V30 3 1 15 10
M  V30 4 1 15 13
M  V30 5 1 15 14
M  V30 6 1 17 8
M  V30 7 1 18 4
M  V30 8 1 19 17
M  V30 9 2 20 18
M  V30 10 1 21 5
M  V30 11 1 21 18
M  V30 12 1 22 1
M  V30 13 1 22 11
M  V30 14 2 23 2
M  V30 15 1 23 7
M  V30 16 1 24 7
M  V30 17 1 24 10
M  V30 18 1 25 8
M  V30 19 1 25 13
M  V30 20 1 26 3
M  V30 21 1 26 17
M  V30 22 2 26 21
M  V30 23 1 27 23
M  V30 24 1 28 9
M  V30 25 1 28 12
M  V30 26 1 29 2
M  V30 27 1 29 12
M  V30 28 1 29 24
M  V30 29 2 30 10
M  V30 30 2 31 1
M  V30 31 1 31 16
M  V30 32 1 31 20
M  V30 33 1 32 8
M  V30 34 1 32 9
M  V30 35 1 33 15
M  V30 36 2 34 3
M  V30 37 1 34 20
M  V30 38 1 35 4
M  V30 39 1 35 6
M  V30 40 1 36 3
M  V30 41 1 37 4
M  V30 42 1 38 4
M  V30 43 1 39 5
M  V30 44 1 40 6
M  V30 45 1 41 6
M  V30 46 1 8 42 CFG=3
M  V30 47 1 43 9
M  V30 48 1 44 9
M  V30 49 1 12 45 CFG=3
M  V30 50 1 13 46 CFG=3
M  V30 51 1 17 47 CFG=1
M  V30 52 1 48 19
M  V30 53 1 49 19
M  V30 54 1 50 19
M  V30 55 1 24 51 CFG=3
M  V30 56 1 52 25
M  V30 57 1 53 25
M  V30 58 1 54 27
M  V30 59 1 55 27
M  V30 60 1 56 27
M  V30 61 1 57 28
M  V30 62 1 58 28
M  V30 63 1 59 30
M  V30 64 1 60 30
M  V30 65 1 61 32
M  V30 66 1 62 32
M  V30 67 1 63 34
M  V30 68 1 64 35
M  V30 END BOND
M  V30 END CTAB
M  END
>  <i_epik_Tot_Q>  (1) 
0

>  <i_epik_Tot_abs_Q>  (1) 
0

>  <i_i_glide_confnum>  (1) 
4

>  <i_i_glide_lignum>  (1) 
168

>  <i_i_glide_posenum>  (1) 
94

>  <i_i_glide_rotatable_bonds>  (1) 
4

>  <i_lp_mmshare_version>  (1) 
72125

>  <i_m_source_file_index>  (1) 
83

>  <i_f3d_flags>  (1) 
0

>  <num_sample>  (1) 
100

>  <b_lp_Chiralities_Consistent>  (1) 
1

>  <r_epik_Charging_Adjusted_Penalty>  (1) 
0.046558445642634526

>  <r_epik_Ionization_Penalty>  (1) 
0.046507495434493687

>  <r_epik_Ionization_Penalty_Charging>  (1) 
0

>  <r_epik_Ionization_Penalty_Neutral>  (1) 
0.046507495434493687

>  <r_epik_State_Penalty>  (1) 
0.046558445642634526

>  <r_glide_ring_energy>  (1) 
0

>  <r_i_docking_score>  (1) 
-3.6962617272792033

>  <r_i_glide_ecoul>  (1) 
-1.8057071400149334

>  <r_i_glide_eff_state_penalty>  (1) 
0.046558445642634526

>  <r_i_glide_einternal>  (1) 
1.3788145492972621

>  <r_i_glide_emodel>  (1) 
-35.123140917106184

>  <r_i_glide_emodel_strain>  (1) 
0

>  <r_i_glide_energy>  (1) 
-28.961293375900251

>  <r_i_glide_erotb>  (1) 
0.1660487774470758

>  <r_i_glide_esite>  (1) 
-0.013270294614413312

>  <r_i_glide_evdw>  (1) 
-27.155586235885316

>  <r_i_glide_gscore>  (1) 
-3.7428201729218378

>  <r_i_glide_gscore_strain>  (1) 
0

>  <r_i_glide_hbond>  (1) 
-0.12075821909007556

>  <r_i_glide_ligand_efficiency>  (1) 
-0.10560747792226295

>  <r_i_glide_ligand_efficiency_ln>  (1) 
-0.81141148324694123

>  <r_i_glide_ligand_efficiency_sa>  (1) 
-0.34544906313549967

>  <r_i_glide_lipo>  (1) 
-1.0737192255589469

>  <r_i_glide_metal>  (1) 
-0

>  <r_i_glide_rewards>  (1) 
-1.0724858283089718

>  <r_lp_Energy>  (1) 
56.444668

>  <r_lp_tautomer_probability>  (1) 
0.99999999486000002

>  <s_epik_Chemistry_Notes>  (1) 
This compound has an imine and may undergo hydrolysis. This compound contains an acetal/aminal-like group ( X-CH(R)-Y where X, Y are N, S, or O) that may be acid/base labile, releasing an aldehyde.

>  <s_epik_cmdline>  (1) 
J2VwaWtfcHl0aG9uJywgJy1waHQnLCAnMS4wJywgJy1waCcsICc3LjQnLCAnLXRuJywgJzgnLCAnLW1hJywgJzUwMCcsICctaW1hZScsICc8aW5maWxlLm1hZT4nLCAnLW9tYWUnLCAnPG91dGZpbGUubWFlPic=

>  <s_epik_input>  (1) 
W0NIMl0xW05IXVtDSDJdQyhPRik9QyhGKWMoYzEyKVtjSF1bY0hdYyhjMltPSF0pW0NASF0oW0NIM10pW0NAQEhdKFtDSDJdW0NIMl1bQ0gyXTMpW0NIMl1bQ0BASF0oW0NAQEhdMzQpQyhGKShGKUMoPVtDSDJdKVtDQEBIXTVONE49QyhPNSlbQ0gzXQ==

>  <s_glide_docking_method>  (1) 
confgen

>  <s_i_glide_gridfile>  (1) 
gpcr_drd2_6luq_protein_autoprepared_prepared

>  <s_lp_Force_Field>  (1) 
S-OPLS

>  <s_lp_Variant>  (1) 
DiffSBDD_82_num_sample_100-2

>  <s_m_source_file>  (1) 
generated__ligand_DiffSBDD_2026-05-06_prepared.sdf

>  <GenAI_Model>  (1) 
DiffSBDD

>  <Protein>  (1) 
generic_title2

$$$$
DiffSBDD_25_num_sample_100
     RDKit          3D

  0  0  0  0  0  0  0  0  0  0999 V3000
M  V30 BEGIN CTAB
M  V30 COUNTS 65 68 0 0 1
M  V30 BEGIN ATOM
M  V30 1 C 11.510364 8.070827 -8.610668 0
M  V30 2 C 5.124995 7.214754 -18.983209 0
M  V30 3 C 5.963991 7.218315 -16.559832 0
M  V30 4 C 8.276306 6.235309 -12.449833 0 CFG=2
M  V30 5 C 6.706308 3.209944 -20.221812 0
M  V30 6 O 7.465750 5.335316 -20.644856 0
M  V30 7 C 7.880856 5.102756 -19.310491 0 CFG=1
M  V30 8 C 6.370391 4.497189 -20.972582 0 CFG=2
M  V30 9 F 3.876953 7.129448 -18.519827 0
M  V30 10 C 5.029200 5.145149 -20.563436 0
M  V30 11 C 8.242582 5.124097 -8.762905 0
M  V30 12 C 7.523383 6.294119 -18.385812 0
M  V30 13 F 5.432227 8.508534 -19.073241 0
M  V30 14 C 6.446797 4.857424 -13.728858 0 CFG=1
M  V30 15 N 8.879503 5.761196 -7.710637 0
M  V30 16 C 6.043940 6.497332 -17.942707 0 CFG=2
M  V30 17 O 5.915431 6.420489 -11.965866 0
M  V30 18 C 9.666246 4.165061 -11.834430 0
M  V30 19 C 5.982607 5.260456 -15.119166 0
M  V30 20 F 7.463757 4.014380 -13.897494 0
M  V30 21 C 8.548899 5.112996 -11.377406 0 CFG=1
M  V30 22 C 6.531141 7.232743 -14.164156 0
M  V30 23 C 9.791416 6.508744 -8.326951 0
M  V30 24 C 8.831872 7.658135 -12.149151 0
M  V30 25 C 7.355160 3.704862 -18.937636 0
M  V30 26 O 9.826902 6.380292 -9.689207 0
M  V30 27 O 7.955475 8.568235 -11.527358 0
M  V30 28 C 5.098496 6.680102 -20.434630 0
M  V30 29 N 6.602275 6.522435 -15.430937 0
M  V30 30 C 8.807268 5.506034 -9.947506 0
M  V30 31 O 10.661793 7.347287 -7.732191 0
M  V30 32 C 6.822327 6.199379 -13.035925 0 CFG=1
M  V30 33 H 12.233470 8.647501 -8.035245 0
M  V30 34 H 12.071290 7.401840 -9.264592 0
M  V30 35 H 10.939593 8.768057 -9.225812 0
M  V30 36 H 4.916473 7.396214 -16.315352 0
M  V30 37 H 6.400517 8.210175 -16.653928 0
M  V30 38 H 8.884311 5.943108 -13.307470 0
M  V30 39 H 5.840354 2.569915 -20.050541 0
M  V30 40 H 7.437072 2.638312 -20.796007 0
M  V30 41 H 8.968969 5.052267 -19.358765 0
M  V30 42 H 6.375702 4.335358 -22.050634 0
M  V30 43 H 4.649422 4.712240 -19.640599 0
M  V30 44 H 4.288324 4.878745 -21.317519 0
M  V30 45 H 7.434605 4.430946 -8.584800 0
M  V30 46 H 7.890315 7.211714 -18.844893 0
M  V30 47 H 8.135995 6.154069 -17.496749 0
M  V30 48 H 5.675506 4.299602 -13.196534 0
M  V30 49 H 5.595690 5.523013 -17.779471 0
M  V30 50 H 6.275772 7.080323 -11.384333 0
M  V30 51 H 9.732742 3.337237 -11.131388 0
M  V30 52 H 9.495113 3.722652 -12.812215 0
M  V30 53 H 10.630100 4.668197 -11.889135 0
M  V30 54 H 4.905018 5.376325 -15.092616 0
M  V30 55 H 6.239206 4.510973 -15.862016 0
M  V30 56 H 7.655053 4.489739 -11.338869 0
M  V30 57 H 5.519603 7.622215 -14.030394 0
M  V30 58 H 7.194806 8.093952 -14.163730 0
M  V30 59 H 9.046996 8.136850 -13.089629 0
M  V30 60 H 9.793678 7.647416 -11.644269 0
M  V30 61 H 8.160795 3.041530 -18.621932 0
M  V30 62 H 6.633363 3.723634 -18.126322 0
M  V30 63 H 7.632759 8.213590 -10.691850 0
M  V30 64 H 4.234674 7.110385 -20.938069 0
M  V30 65 H 5.938432 7.079774 -21.003217 0
M  V30 END ATOM
M  V30 BEGIN BOND
M  V30 1 1 7 6
M  V30 2 1 8 5
M  V30 3 1 8 6
M  V30 4 1 9 2
M  V30 5 1 10 8
M  V30 6 1 12 7
M  V30 7 1 13 2
M  V30 8 1 15 11
M  V30 9 1 16 2
M  V30 10 1 16 3
M  V30 11 1 16 12
M  V30 12 1 19 14
M  V30 13 1 20 14
M  V30 14 1 21 4
M  V30 15 1 21 18
M  V30 16 2 23 15
M  V30 17 1 24 4
M  V30 18 1 25 5
M  V30 19 1 25 7
M  V30 20 1 26 23
M  V30 21 1 27 24
M  V30 22 1 28 2
M  V30 23 1 28 10
M  V30 24 1 29 3
M  V30 25 1 29 19
M  V30 26 1 29 22
M  V30 27 2 30 11
M  V30 28 1 30 21
M  V30 29 1 30 26
M  V30 30 1 31 1
M  V30 31 1 31 23
M  V30 32 1 32 4
M  V30 33 1 32 14
M  V30 34 1 32 17 CFG=1
M  V30 35 1 32 22
M  V30 36 1 33 1
M  V30 37 1 34 1
M  V30 38 1 35 1
M  V30 39 1 36 3
M  V30 40 1 37 3
M  V30 41 1 4 38 CFG=3
M  V30 42 1 39 5
M  V30 43 1 40 5
M  V30 44 1 7 41 CFG=3
M  V30 45 1 8 42 CFG=3
M  V30 46 1 43 10
M  V30 47 1 44 10
M  V30 48 1 45 11
M  V30 49 1 46 12
M  V30 50 1 47 12
M  V30 51 1 14 48 CFG=1
M  V30 52 1 16 49 CFG=1
M  V30 53 1 50 17
M  V30 54 1 51 18
M  V30 55 1 52 18
M  V30 56 1 53 18
M  V30 57 1 54 19
M  V30 58 1 55 19
M  V30 59 1 21 56 CFG=1
M  V30 60 1 57 22
M  V30 61 1 58 22
M  V30 62 1 59 24
M  V30 63 1 60 24
M  V30 64 1 61 25
M  V30 65 1 62 25
M  V30 66 1 63 27
M  V30 67 1 64 28
M  V30 68 1 65 28
M  V30 END BOND
M  V30 END CTAB
M  END
>  <i_epik_Tot_Q>  (1) 
0

>  <i_epik_Tot_abs_Q>  (1) 
0

>  <i_i_glide_confnum>  (1) 
314

>  <i_i_glide_lignum>  (1) 
40

>  <i_i_glide_posenum>  (1) 
58

>  <i_i_glide_rotatable_bonds>  (1) 
9

>  <i_lp_mmshare_version>  (1) 
72125

>  <i_m_source_file_index>  (1) 
26

>  <i_f3d_flags>  (1) 
0

>  <num_sample>  (1) 
100

>  <b_lp_Chiralities_Consistent>  (1) 
1

>  <r_epik_Charging_Adjusted_Penalty>  (1) 
1.0631091651627218

>  <r_epik_Ionization_Penalty>  (1) 
1.0631126298453322

>  <r_epik_Ionization_Penalty_Charging>  (1) 
0

>  <r_epik_Ionization_Penalty_Neutral>  (1) 
1.0631126298453322

>  <r_epik_State_Penalty>  (1) 
1.0631091651627218

>  <r_glide_ring_energy>  (1) 
1.3601753823805443

>  <r_i_docking_score>  (1) 
-3.694682760632924

>  <r_i_glide_ecoul>  (1) 
-6.744057813078892

>  <r_i_glide_eff_state_penalty>  (1) 
1.0631091651627218

>  <r_i_glide_einternal>  (1) 
12.705536035086073

>  <r_i_glide_emodel>  (1) 
-36.308800693181517

>  <r_i_glide_emodel_strain>  (1) 
0.9003484725856481

>  <r_i_glide_energy>  (1) 
-32.458641403953088

>  <r_i_glide_erotb>  (1) 
0.56501407927423541

>  <r_i_glide_esite>  (1) 
0

>  <r_i_glide_evdw>  (1) 
-25.714583590874199

>  <r_i_glide_gscore>  (1) 
-4.7577919257956456

>  <r_i_glide_gscore_strain>  (1) 
0

>  <r_i_glide_hbond>  (1) 
-0.23532257921223287

>  <r_i_glide_ligand_efficiency>  (1) 
-0.11545883626977888

>  <r_i_glide_ligand_efficiency_ln>  (1) 
-0.82734018335401283

>  <r_i_glide_ligand_efficiency_sa>  (1) 
-0.36655895630734225

>  <r_i_glide_lipo>  (1) 
-1.9235481935178593

>  <r_i_glide_metal>  (1) 
-0

>  <r_i_glide_rewards>  (1) 
-0.86659738083424431

>  <r_lp_Energy>  (1) 
23.195093

>  <s_epik_cmdline>  (1) 
J2VwaWtfcHl0aG9uJywgJy1waHQnLCAnMS4wJywgJy1waCcsICc3LjQnLCAnLXRuJywgJzgnLCAnLW1hJywgJzUwMCcsICctaW1hZScsICc8aW5maWxlLm1hZT4nLCAnLW9tYWUnLCAnPG91dGZpbGUubWFlPic=

>  <s_epik_input>  (1) 
W0NIM11PYzFuW2NIXWMobzEpW0NASF0oW0NIM10pW0NASF0oW0NIMl1bT0hdKVtDQF0yKFtPSF0pW0NASF0oRilbQ0gyXU4oW0NIMl0yKVtDSDJdW0NASF0oW0NIMl0zKUMoRikoRilbQ0gyXVtDSDJdW0NASF0oW0NIMl1bQ0gyXTQpT1tDQEBIXTM0

>  <s_glide_docking_method>  (1) 
confgen

>  <s_i_glide_gridfile>  (1) 
gpcr_drd2_6luq_protein_autoprepared_prepared

>  <s_lp_Force_Field>  (1) 
S-OPLS

>  <s_lp_Variant>  (1) 
DiffSBDD_25_num_sample_100-3

>  <s_m_source_file>  (1) 
generated__ligand_DiffSBDD_2026-05-06_prepared.sdf

>  <GenAI_Model>  (1) 
DiffSBDD

>  <Protein>  (1) 
generic_title2

$$$$
DiffSBDD_68_num_sample_100
     RDKit          3D

  0  0  0  0  0  0  0  0  0  0999 V3000
M  V30 BEGIN CTAB
M  V30 COUNTS 88 93 0 0 1
M  V30 BEGIN ATOM
M  V30 1 C 15.888598 0.549813 -20.817786 0
M  V30 2 C 14.419245 2.130659 -18.082135 0
M  V30 3 C 5.198942 4.533954 -20.497015 0
M  V30 4 C 9.881546 2.154483 -18.192006 0
M  V30 5 C 20.859637 4.221319 -23.193667 0
M  V30 6 C 17.513397 3.985706 -21.890627 0 CFG=1
M  V30 7 O 16.770116 1.295849 -22.933963 0
M  V30 8 C 16.004537 4.740926 -19.354779 0
M  V30 9 O 20.098657 5.088688 -23.986527 0
M  V30 10 C 9.913648 -0.228077 -19.111117 0
M  V30 11 C 17.362127 5.418605 -21.315393 0
M  V30 12 C 5.799112 5.548575 -19.618871 0
M  V30 13 C 6.409141 2.670894 -19.337291 0 CFG=2
M  V30 14 C 18.924340 3.311470 -21.592354 0 CFG=2
M  V30 15 C 13.803061 1.794599 -20.507561 0 CFG=1
M  V30 16 C 7.086495 3.614559 -18.401353 0 CFG=2
M  V30 17 O 21.060764 2.969232 -23.803367 0
M  V30 18 C 6.728592 5.086226 -18.490976 0
M  V30 19 C 22.485397 7.341075 -22.855010 0
M  V30 20 C 15.906456 3.279287 -19.857940 0 CFG=1
M  V30 21 C 12.188035 0.993774 -18.672062 0 CFG=2
M  V30 22 C 12.968080 1.864781 -17.660810 0
M  V30 23 O 18.968248 2.768864 -20.291757 0
M  V30 24 O 20.251751 5.309773 -21.037608 0
M  V30 25 C 7.897939 2.904236 -19.470577 0 CFG=1
M  V30 26 C 16.359801 1.615357 -21.819555 0
M  V30 27 C 21.457280 6.054853 -20.935191 0 CFG=1
M  V30 28 C 12.340812 1.532649 -20.113790 0
M  V30 29 C 17.275565 5.459693 -19.791083 0
M  V30 30 C 14.480548 2.747249 -19.492357 0 CFG=2
M  V30 31 C 21.485693 7.160516 -21.977372 0
M  V30 32 O 21.590299 6.622002 -19.649224 0
M  V30 33 C 5.491729 3.225863 -20.346146 0
M  V30 34 C 16.291282 3.110907 -21.373904 0 CFG=2
M  V30 35 C 17.332067 4.148705 -23.423412 0
M  V30 36 O 22.979508 7.025909 -19.491678 0
M  V30 37 N 8.808917 1.859567 -19.105142 0
M  V30 38 S 5.434723 7.149239 -19.883423 0
M  V30 39 C 8.801849 0.646950 -19.621440 0
M  V30 40 O 14.470333 0.541532 -20.643052 0
M  V30 41 O 7.985494 0.242610 -20.448286 0
M  V30 42 C 10.706637 0.811472 -18.240145 0 CFG=1
M  V30 43 C 20.282057 4.077783 -21.757164 0 CFG=2
M  V30 44 H 16.192485 -0.433011 -21.179234 0
M  V30 45 H 16.390104 0.680411 -19.860761 0
M  V30 46 H 14.881501 2.797711 -17.354211 0
M  V30 47 H 14.986648 1.200185 -18.049311 0
M  V30 48 H 4.516667 4.841146 -21.276964 0
M  V30 49 H 9.493707 2.344404 -17.190558 0
M  V30 50 H 10.435359 3.033502 -18.520599 0
M  V30 51 H 21.862118 4.642365 -23.156914 0
M  V30 52 H 15.929601 4.769257 -18.267350 0
M  V30 53 H 15.158864 5.321139 -19.726996 0
M  V30 54 H 19.184048 4.924879 -23.817634 0
M  V30 55 H 10.489982 -0.644952 -19.935107 0
M  V30 56 H 9.505091 -1.039542 -18.508968 0
M  V30 57 H 18.144692 6.084870 -21.672944 0
M  V30 58 H 16.444806 5.860797 -21.708994 0
M  V30 59 H 6.057228 1.734855 -18.906955 0
M  V30 60 H 19.006589 2.426503 -22.222082 0
M  V30 61 H 13.752130 2.264673 -21.489450 0
M  V30 62 H 7.219266 3.259271 -17.381017 0
M  V30 63 H 20.250339 2.480810 -23.812836 0
M  V30 64 H 7.656430 5.656887 -18.546662 0
M  V30 65 H 22.453536 8.144336 -23.575858 0
M  V30 66 H 23.345844 6.688359 -22.862263 0
M  V30 67 H 16.634479 2.718554 -19.276527 0
M  V30 68 H 12.653210 0.007237 -18.653329 0
M  V30 69 H 12.469944 2.822566 -17.512327 0
M  V30 70 H 12.972642 1.372316 -16.691148 0
M  V30 71 H 19.011205 3.491450 -19.684340 0
M  V30 72 H 8.215427 3.515928 -20.313553 0
M  V30 73 H 22.306243 5.381164 -21.074642 0
M  V30 74 H 11.786304 2.463790 -20.224759 0
M  V30 75 H 11.903947 0.841391 -20.833668 0
M  V30 76 H 18.157785 5.029187 -19.321125 0
M  V30 77 H 17.235149 6.497442 -19.458803 0
M  V30 78 H 13.819240 3.614777 -19.474032 0
M  V30 79 H 20.637569 7.828842 -21.992185 0
M  V30 80 H 5.034972 2.510899 -21.014809 0
M  V30 81 H 15.426840 3.514251 -21.899046 0
M  V30 82 H 16.286933 4.086714 -23.728159 0
M  V30 83 H 17.659969 5.119395 -23.789959 0
M  V30 84 H 17.864319 3.372292 -23.968317 0
M  V30 85 H 23.338418 6.243868 -19.091169 0
M  V30 86 H 6.257794 5.368538 -17.548139 0
M  V30 87 H 10.725495 0.410267 -17.226770 0
M  V30 88 H 21.029246 3.468588 -21.242606 0
M  V30 END ATOM
M  V30 BEGIN BOND
M  V30 1 1 9 5
M  V30 2 1 11 6
M  V30 3 1 12 3
M  V30 4 1 14 6
M  V30 5 1 16 13
M  V30 6 1 17 5
M  V30 7 1 18 12
M  V30 8 1 18 16
M  V30 9 1 20 8
M  V30 10 1 22 2
M  V30 11 1 22 21
M  V30 12 1 23 14
M  V30 13 1 25 13
M  V30 14 1 25 16
M  V30 15 1 26 1
M  V30 16 2 26 7
M  V30 17 1 27 24
M  V30 18 1 28 15
M  V30 19 1 28 21
M  V30 20 1 29 8
M  V30 21 1 29 11
M  V30 22 1 30 2
M  V30 23 1 30 15
M  V30 24 1 30 20
M  V30 25 2 31 19
M  V30 26 1 31 27
M  V30 27 1 32 27
M  V30 28 2 33 3
M  V30 29 1 33 13
M  V30 30 1 34 6
M  V30 31 1 34 20
M  V30 32 1 34 26
M  V30 33 1 6 35 CFG=3
M  V30 34 1 36 32
M  V30 35 1 37 4
M  V30 36 1 37 25
M  V30 37 2 38 12
M  V30 38 1 39 10
M  V30 39 1 39 37
M  V30 40 1 40 1
M  V30 41 1 40 15
M  V30 42 2 41 39
M  V30 43 1 42 4
M  V30 44 1 42 10
M  V30 45 1 42 21
M  V30 46 1 43 5
M  V30 47 1 43 14
M  V30 48 1 43 24
M  V30 49 1 44 1
M  V30 50 1 45 1
M  V30 51 1 46 2
M  V30 52 1 47 2
M  V30 53 1 48 3
M  V30 54 1 49 4
M  V30 55 1 50 4
M  V30 56 1 51 5
M  V30 57 1 52 8
M  V30 58 1 53 8
M  V30 59 1 54 9
M  V30 60 1 55 10
M  V30 61 1 56 10
M  V30 62 1 57 11
M  V30 63 1 58 11
M  V30 64 1 13 59 CFG=1
M  V30 65 1 14 60 CFG=3
M  V30 66 1 15 61 CFG=3
M  V30 67 1 16 62 CFG=1
M  V30 68 1 63 17
M  V30 69 1 64 18
M  V30 70 1 65 19
M  V30 71 1 66 19
M  V30 72 1 20 67 CFG=1
M  V30 73 1 21 68 CFG=3
M  V30 74 1 69 22
M  V30 75 1 70 22
M  V30 76 1 71 23
M  V30 77 1 25 72 CFG=3
M  V30 78 1 27 73 CFG=3
M  V30 79 1 74 28
M  V30 80 1 75 28
M  V30 81 1 76 29
M  V30 82 1 77 29
M  V30 83 1 30 78 CFG=1
M  V30 84 1 79 31
M  V30 85 1 80 33
M  V30 86 1 34 81 CFG=3
M  V30 87 1 82 35
M  V30 88 1 83 35
M  V30 89 1 84 35
M  V30 90 1 85 36
M  V30 91 1 86 18
M  V30 92 1 42 87 CFG=1
M  V30 93 1 43 88 CFG=1
M  V30 END BOND
M  V30 END CTAB
M  END
>  <i_epik_Tot_Q>  (1) 
0

>  <i_epik_Tot_abs_Q>  (1) 
0

>  <i_i_glide_confnum>  (1) 
2569

>  <i_i_glide_lignum>  (1) 
137

>  <i_i_glide_posenum>  (1) 
372

>  <i_i_glide_rotatable_bonds>  (1) 
13

>  <i_lp_mmshare_version>  (1) 
72125

>  <i_m_source_file_index>  (1) 
69

>  <i_f3d_flags>  (1) 
0

>  <num_sample>  (1) 
100

>  <b_lp_Chiralities_Consistent>  (1) 
1

>  <r_epik_Charging_Adjusted_Penalty>  (1) 
0

>  <r_epik_Ionization_Penalty>  (1) 
0.00032218278010154739

>  <r_epik_Ionization_Penalty_Charging>  (1) 
0

>  <r_epik_Ionization_Penalty_Neutral>  (1) 
0.00032218278010154739

>  <r_epik_State_Penalty>  (1) 
-0

>  <r_glide_ring_energy>  (1) 
0

>  <r_i_docking_score>  (1) 
-3.690278774606381

>  <r_i_glide_ecoul>  (1) 
-2.9866047623068761

>  <r_i_glide_eff_state_penalty>  (1) 
-0

>  <r_i_glide_einternal>  (1) 
7.9142427361012331

>  <r_i_glide_emodel>  (1) 
-33.738206835040806

>  <r_i_glide_emodel_strain>  (1) 
2.7274305274761161

>  <r_i_glide_energy>  (1) 
-36.174335899996713

>  <r_i_glide_erotb>  (1) 
0.36271052330308029

>  <r_i_glide_esite>  (1) 
-0.0067806187583637316

>  <r_i_glide_evdw>  (1) 
-33.187731137689838

>  <r_i_glide_gscore>  (1) 
-3.690278774606381

>  <r_i_glide_gscore_strain>  (1) 
0

>  <r_i_glide_hbond>  (1) 
-0.29915852302556362

>  <r_i_glide_ligand_efficiency>  (1) 
-0.085820436618753049

>  <r_i_glide_ligand_efficiency_ln>  (1) 
-0.77507323467516542

>  <r_i_glide_ligand_efficiency_sa>  (1) 
-0.3006631511916813

>  <r_i_glide_lipo>  (1) 
-1.1977841147737622

>  <r_i_glide_metal>  (1) 
-0

>  <r_i_glide_rewards>  (1) 
-0.44188877012124866

>  <r_lp_Energy>  (1) 
44.537447999999998

>  <r_lp_tautomer_probability>  (1) 
1

>  <s_epik_Chemistry_Notes>  (1) 
This compound contains an acetal/aminal-like group ( X-CH(R)-Y where X, Y are N, S, or O) that may be acid/base labile, releasing an aldehyde.

>  <s_epik_cmdline>  (1) 
J2VwaWtfcHl0aG9uJywgJy1waHQnLCAnMS4wJywgJy1waCcsICc3LjQnLCAnLXRuJywgJzgnLCAnLW1hJywgJzUwMCcsICctaW1hZScsICc8aW5maWxlLm1hZT4nLCAnLW9tYWUnLCAnPG91dGZpbGUubWFlPic=

>  <s_epik_input>  (1) 
W0NIMl09W0NIXVtDQEBIXShPW09IXSlPW0NASF0oW0NIXShbT0hdKVtPSF0pW0NAQEhdKFtPSF0pW0NAXShbQ0gzXSkoW0NIMl1bQ0gyXVtDSDJdMSlbQ0BASF0oQyg9TylbQ0gyXU8yKVtDQEBIXTFbQ0BASF0oW0NAQEhdMjMpW0NIMl1bQ0gyXVtDQEhdKFtDSDJdMylbQ0BIXShbQ0gyXUM0PU8pW0NIMl1ONFtDQEBIXTVbQ0BIXShbQ0BIXTU2KVtDSF09QyhbU0hdKVtDSF09W0NIXTY=

>  <s_glide_docking_method>  (1) 
confgen

>  <s_i_glide_gridfile>  (1) 
gpcr_drd2_6luq_protein_autoprepared_prepared

>  <s_lp_Force_Field>  (1) 
S-OPLS

>  <s_lp_Variant>  (1) 
DiffSBDD_68_num_sample_100-1

>  <s_m_source_file>  (1) 
generated__ligand_DiffSBDD_2026-05-06_prepared.sdf

>  <GenAI_Model>  (1) 
DiffSBDD

>  <Protein>  (1) 
generic_title2

$$$$
DiffSBDD_79_num_sample_100
     RDKit          3D

  0  0  0  0  0  0  0  0  0  0999 V3000
M  V30 BEGIN CTAB
M  V30 COUNTS 54 57 0 0 1
M  V30 BEGIN ATOM
M  V30 1 C 8.077607 0.761753 -18.519904 0
M  V30 2 C 7.877784 2.099918 -16.362865 0
M  V30 3 O 7.174564 4.987103 -18.560407 0
M  V30 4 C 11.316662 8.214740 -9.752362 0
M  V30 5 C 10.285032 7.382908 -9.906513 0
M  V30 6 C 7.429966 4.494595 -17.438397 0
M  V30 7 C 8.459945 3.847394 -12.292556 0
M  V30 8 C 9.602767 6.108662 -12.084561 0 CFG=1
M  V30 9 C 12.194834 8.279273 -8.573221 0
M  V30 10 C 9.691865 4.629958 -11.798996 0
M  V30 11 S 8.224787 0.444554 -16.707667 0
M  V30 12 C 10.631541 7.701330 -6.723793 0
M  V30 13 C 9.834952 6.477230 -8.839568 0
M  V30 14 F 10.234760 7.897765 -5.467779 0
M  V30 15 C 8.299201 6.657249 -11.576568 0 CFG=1
M  V30 16 C 11.620898 8.523137 -7.223169 0
M  V30 17 C 9.584317 7.362636 -11.227814 0 CFG=1
M  V30 18 C 6.088002 2.472421 -13.350908 0
M  V30 19 O 7.514321 5.094552 -16.355456 0 CHG=-1
M  V30 20 C 7.782814 2.280741 -18.790572 0
M  V30 21 C 9.991636 6.609763 -7.488958 0
M  V30 22 C 7.695143 2.915250 -17.422857 0
M  V30 23 C 6.723866 5.580900 -13.184901 0
M  V30 24 N 7.834871 2.370148 -14.985478 0
M  V30 25 O 12.234816 9.473839 -6.690994 0 CHG=-1
M  V30 26 C 6.952228 3.307711 -14.309782 0 CFG=2
M  V30 27 C 7.342363 6.913376 -12.710607 0
M  V30 28 C 7.717956 4.421330 -13.536285 0 CFG=2
M  V30 29 H 7.271450 0.144371 -18.915624 0
M  V30 30 H 8.997147 0.450681 -19.015691 0
M  V30 31 H 11.599049 8.850959 -10.575388 0
M  V30 32 H 8.796463 2.828034 -12.482590 0
M  V30 33 H 7.745034 3.769374 -11.474071 0
M  V30 34 H 9.913417 6.336563 -13.092852 0
M  V30 35 H 12.773722 7.369703 -8.539125 0
M  V30 36 H 12.949364 9.024388 -8.831040 0
M  V30 37 H 10.583383 4.254416 -12.291604 0
M  V30 38 H 9.834889 4.431296 -10.741973 0
M  V30 39 H 9.257538 5.625526 -9.151768 0
M  V30 40 H 7.817216 6.168247 -10.732833 0
M  V30 41 H 9.706910 8.308730 -11.751783 0
M  V30 42 H 5.434820 3.111390 -12.763518 0
M  V30 43 H 5.463085 1.762597 -13.891141 0
M  V30 44 H 6.681166 1.884135 -12.652421 0
M  V30 45 H 6.844015 2.410234 -19.330352 0
M  V30 46 H 8.582457 2.742678 -19.370532 0
M  V30 47 H 9.517060 5.844185 -6.893265 0
M  V30 48 H 6.107689 5.801657 -14.057650 0
M  V30 49 H 6.027702 5.242020 -12.417602 0
M  V30 50 H 6.252335 3.734453 -15.022723 0
M  V30 51 H 7.855024 7.408281 -13.536801 0
M  V30 52 H 6.562915 7.593926 -12.366937 0
M  V30 53 H 8.482749 4.815495 -14.202778 0
M  V30 54 H 8.119206 1.604206 -14.393265 0
M  V30 END ATOM
M  V30 BEGIN BOND
M  V30 1 2 5 4
M  V30 2 2 6 3
M  V30 3 1 9 4
M  V30 4 1 10 7
M  V30 5 1 10 8
M  V30 6 1 11 1
M  V30 7 1 11 2
M  V30 8 1 13 5
M  V30 9 1 14 12
M  V30 10 1 15 8
M  V30 11 1 16 9
M  V30 12 2 16 12
M  V30 13 1 17 5
M  V30 14 1 17 8
M  V30 15 1 17 15
M  V30 16 1 19 6
M  V30 17 1 20 1
M  V30 18 1 21 12
M  V30 19 2 21 13
M  V30 20 2 22 2
M  V30 21 1 22 6
M  V30 22 1 22 20
M  V30 23 1 24 2
M  V30 24 1 25 16
M  V30 25 1 26 18
M  V30 26 1 26 24
M  V30 27 1 27 15
M  V30 28 1 27 23
M  V30 29 1 28 7
M  V30 30 1 28 23
M  V30 31 1 28 26
M  V30 32 1 29 1
M  V30 33 1 30 1
M  V30 34 1 31 4
M  V30 35 1 32 7
M  V30 36 1 33 7
M  V30 37 1 8 34 CFG=3
M  V30 38 1 35 9
M  V30 39 1 36 9
M  V30 40 1 37 10
M  V30 41 1 38 10
M  V30 42 1 39 13
M  V30 43 1 15 40 CFG=1
M  V30 44 1 17 41 CFG=3
M  V30 45 1 42 18
M  V30 46 1 43 18
M  V30 47 1 44 18
M  V30 48 1 45 20
M  V30 49 1 46 20
M  V30 50 1 47 21
M  V30 51 1 48 23
M  V30 52 1 49 23
M  V30 53 1 26 50 CFG=3
M  V30 54 1 51 27
M  V30 55 1 52 27
M  V30 56 1 28 53 CFG=3
M  V30 57 1 54 24
M  V30 END BOND
M  V30 END CTAB
M  END
>  <i_epik_Tot_Q>  (1) 
-2

>  <i_epik_Tot_abs_Q>  (1) 
2

>  <i_i_glide_confnum>  (1) 
83

>  <i_i_glide_lignum>  (1) 
161

>  <i_i_glide_posenum>  (1) 
86

>  <i_i_glide_rotatable_bonds>  (1) 
5

>  <i_lp_mmshare_version>  (1) 
72125

>  <i_m_source_file_index>  (1) 
80

>  <i_f3d_flags>  (1) 
0

>  <num_sample>  (1) 
100

>  <b_lp_Chiralities_Consistent>  (1) 
1

>  <r_epik_Charging_Adjusted_Penalty>  (1) 
2.1010309465817274

>  <r_epik_Ionization_Penalty>  (1) 
1.0507665500608381

>  <r_epik_Ionization_Penalty_Charging>  (1) 
1.0507624105285871

>  <r_epik_Ionization_Penalty_Neutral>  (1) 
4.1395322510490374e-06

>  <r_epik_State_Penalty>  (1) 
1.0502685360531403

>  <r_glide_ring_energy>  (1) 
0

>  <r_i_docking_score>  (1) 
-3.6852817374096132

>  <r_i_glide_ecoul>  (1) 
0.74248998105265906

>  <r_i_glide_eff_state_penalty>  (1) 
1.0502685360531403

>  <r_i_glide_einternal>  (1) 
14.327338790706273

>  <r_i_glide_emodel>  (1) 
-30.845549760631013

>  <r_i_glide_emodel_strain>  (1) 
0

>  <r_i_glide_energy>  (1) 
-31.808479415135519

>  <r_i_glide_erotb>  (1) 
0.48233039889226492

>  <r_i_glide_esite>  (1) 
-0.001926494326586184

>  <r_i_glide_evdw>  (1) 
-32.550969396188179

>  <r_i_glide_gscore>  (1) 
-4.7355502734627537

>  <r_i_glide_gscore_strain>  (1) 
0

>  <r_i_glide_hbond>  (1) 
0

>  <r_i_glide_ligand_efficiency>  (1) 
-0.13161720490748618

>  <r_i_glide_ligand_efficiency_ln>  (1) 
-0.85067122956773156

>  <r_i_glide_ligand_efficiency_sa>  (1) 
-0.39966735293117195

>  <r_i_glide_lipo>  (1) 
-2.0367768945088285

>  <r_i_glide_metal>  (1) 
-0

>  <r_i_glide_rewards>  (1) 
-1.6630023108680936

>  <r_lp_Energy>  (1) 
50.630325999999997

>  <s_epik_cmdline>  (1) 
J2VwaWtfcHl0aG9uJywgJy1waHQnLCAnMS4wJywgJy1waCcsICc3LjQnLCAnLXRuJywgJzgnLCAnLW1hJywgJzUwMCcsICctaW1hZScsICc8aW5maWxlLm1hZT4nLCAnLW9tYWUnLCAnPG91dGZpbGUubWFlPic=

>  <s_epik_input>  (1) 
Tz1DKFtPSF0pW0NASF0xW0NIMl1bQ0gyXVMvQzE9Ti9bQ0BASF0oW0NIM10pW0NASF0oW0NIMl1bQ0gyXTIpW0NIMl1bQ0gyXVtDQEBIXShbQ0BIXTIzKVtDQEhdM0M0PVtDSF1bQ0gyXUMoW09IXSk9QyhGKVtDSF09W0NIXTQ=

>  <s_glide_docking_method>  (1) 
confgen

>  <s_i_glide_gridfile>  (1) 
gpcr_drd2_6luq_protein_autoprepared_prepared

>  <s_lp_Force_Field>  (1) 
S-OPLS

>  <s_lp_Variant>  (1) 
DiffSBDD_79_num_sample_100-2

>  <s_m_source_file>  (1) 
generated__ligand_DiffSBDD_2026-05-06_prepared.sdf

>  <GenAI_Model>  (1) 
DiffSBDD

>  <Protein>  (1) 
generic_title2

$$$$
DiffSBDD_15_num_sample_100
     RDKit          3D

  0  0  0  0  0  0  0  0  0  0999 V3000
M  V30 BEGIN CTAB
M  V30 COUNTS 48 51 0 0 1
M  V30 BEGIN ATOM
M  V30 1 C 7.637405 6.450678 -14.051766 0
M  V30 2 C 9.834839 6.239916 -10.016455 0
M  V30 3 C 8.149298 7.890316 -12.123588 0
M  V30 4 C 5.015794 7.232643 -18.521429 0
M  V30 5 C 8.178077 4.093947 -14.186239 0
M  V30 6 C 7.625936 5.237667 -14.767785 0
M  V30 7 C 9.941555 7.669969 -10.375784 0
M  V30 8 C 7.034828 5.153623 -16.124012 0
M  V30 9 C 5.434822 7.686515 -19.925170 0
M  V30 10 C 8.849596 8.362704 -11.091667 0
M  V30 11 C 6.390482 4.216606 -21.318461 0
M  V30 12 C 8.736414 4.144357 -12.902510 0
M  V30 13 C 5.425138 6.489224 -20.889068 0 CFG=2
M  V30 14 C 8.221335 6.547963 -12.764679 0
M  V30 15 C 9.375228 5.256020 -10.796995 0
M  V30 16 F 4.880808 7.738726 -22.778826 0
M  V30 17 C 6.374080 5.404698 -20.346408 0 CFG=1
M  V30 18 N 5.842039 6.135471 -18.020843 0
M  V30 19 C 6.703894 4.693934 -22.744634 0
M  V30 20 C 6.406301 6.177499 -16.745672 0
M  V30 21 F 6.978491 7.468982 -22.367552 0
M  V30 22 C 8.785529 5.350345 -12.165560 0
M  V30 23 O 5.762207 5.685901 -23.142746 0
M  V30 24 C 5.788334 6.865590 -22.342178 0
M  V30 25 C 5.971639 4.980888 -18.920051 0
M  V30 26 H 7.207825 7.333964 -14.492562 0
M  V30 27 H 10.229447 5.978430 -9.045329 0
M  V30 28 H 7.434835 8.561170 -12.565365 0
M  V30 29 H 3.976513 6.902169 -18.531367 0
M  V30 30 H 5.058524 8.082938 -17.839762 0
M  V30 31 H 8.165706 3.158456 -14.726104 0
M  V30 32 H 10.049554 8.201582 -9.429880 0
M  V30 33 H 10.876510 7.830261 -10.912412 0
M  V30 34 H 7.123944 4.202661 -16.621634 0
M  V30 35 H 4.754166 8.464031 -20.273286 0
M  V30 36 H 6.428584 8.134341 -19.891669 0
M  V30 37 H 8.643820 9.369302 -10.760441 0
M  V30 38 H 5.421857 3.714509 -21.310817 0
M  V30 39 H 7.127596 3.477856 -21.001890 0
M  V30 40 H 9.143180 3.241079 -12.469713 0
M  V30 41 H 4.414053 6.078638 -20.905213 0
M  V30 42 H 9.434839 4.252537 -10.400011 0
M  V30 43 H 7.382665 5.819714 -20.300320 0
M  V30 44 H 6.644572 3.856237 -23.439812 0
M  V30 45 H 7.719623 5.086903 -22.810327 0
M  V30 46 H 6.290001 7.136832 -16.270103 0
M  V30 47 H 6.722965 4.273927 -18.578906 0
M  V30 48 H 5.034839 4.432704 -18.938579 0
M  V30 END ATOM
M  V30 BEGIN BOND
M  V30 1 2 6 1
M  V30 2 1 6 5
M  V30 3 1 7 2
M  V30 4 1 8 6
M  V30 5 1 9 4
M  V30 6 2 10 3
M  V30 7 1 10 7
M  V30 8 2 12 5
M  V30 9 1 13 9
M  V30 10 1 14 1
M  V30 11 1 14 3
M  V30 12 2 15 2
M  V30 13 1 17 11
M  V30 14 1 17 13
M  V30 15 1 18 4
M  V30 16 1 19 11
M  V30 17 2 20 8
M  V30 18 1 20 18
M  V30 19 1 22 12
M  V30 20 2 22 14
M  V30 21 1 22 15
M  V30 22 1 23 19
M  V30 23 1 24 13
M  V30 24 1 24 16
M  V30 25 1 24 21
M  V30 26 1 24 23
M  V30 27 1 25 17
M  V30 28 1 25 18
M  V30 29 1 26 1
M  V30 30 1 27 2
M  V30 31 1 28 3
M  V30 32 1 29 4
M  V30 33 1 30 4
M  V30 34 1 31 5
M  V30 35 1 32 7
M  V30 36 1 33 7
M  V30 37 1 34 8
M  V30 38 1 35 9
M  V30 39 1 36 9
M  V30 40 1 37 10
M  V30 41 1 38 11
M  V30 42 1 39 11
M  V30 43 1 40 12
M  V30 44 1 13 41 CFG=3
M  V30 45 1 42 15
M  V30 46 1 17 43 CFG=1
M  V30 47 1 44 19
M  V30 48 1 45 19
M  V30 49 1 46 20
M  V30 50 1 47 25
M  V30 51 1 48 25
M  V30 END BOND
M  V30 END CTAB
M  END
>  <i_epik_Tot_Q>  (1) 
0

>  <i_epik_Tot_abs_Q>  (1) 
0

>  <i_i_glide_confnum>  (1) 
1

>  <i_i_glide_lignum>  (1) 
24

>  <i_i_glide_posenum>  (1) 
148

>  <i_i_glide_rotatable_bonds>  (1) 
2

>  <i_lp_mmshare_version>  (1) 
72125

>  <i_m_source_file_index>  (1) 
16

>  <i_f3d_flags>  (1) 
0

>  <num_sample>  (1) 
100

>  <b_lp_Chiralities_Consistent>  (1) 
1

>  <r_epik_Charging_Adjusted_Penalty>  (1) 
0.41067983895260396

>  <r_epik_Ionization_Penalty>  (1) 
0.00043588865487499098

>  <r_epik_Ionization_Penalty_Charging>  (1) 
0

>  <r_epik_Ionization_Penalty_Neutral>  (1) 
0.00043588865487499098

>  <r_epik_State_Penalty>  (1) 
0.41067983895260396

>  <r_glide_ring_energy>  (1) 
0

>  <r_i_docking_score>  (1) 
-3.6842502813542359

>  <r_i_glide_ecoul>  (1) 
0.74090264139637851

>  <r_i_glide_eff_state_penalty>  (1) 
0.41067983895260396

>  <r_i_glide_einternal>  (1) 
1.2218739627551103

>  <r_i_glide_emodel>  (1) 
-30.594378832567834

>  <r_i_glide_emodel_strain>  (1) 
0

>  <r_i_glide_energy>  (1) 
-25.122691817507434

>  <r_i_glide_erotb>  (1) 
0.32177656458331499

>  <r_i_glide_esite>  (1) 
0

>  <r_i_glide_evdw>  (1) 
-25.863594458903812

>  <r_i_glide_gscore>  (1) 
-4.0949301203068398

>  <r_i_glide_gscore_strain>  (1) 
0

>  <r_i_glide_hbond>  (1) 
0

>  <r_i_glide_ligand_efficiency>  (1) 
-0.14737001125416943

>  <r_i_glide_ligand_efficiency_ln>  (1) 
-0.87327772475250154

>  <r_i_glide_ligand_efficiency_sa>  (1) 
-0.43091252698782118

>  <r_i_glide_lipo>  (1) 
-1.5752422001553388

>  <r_i_glide_metal>  (1) 
-0

>  <r_i_glide_rewards>  (1) 
-1.6594201579990822

>  <r_lp_Energy>  (1) 
29.411313

>  <r_lp_tautomer_probability>  (1) 
0.5

>  <s_epik_cmdline>  (1) 
J2VwaWtfcHl0aG9uJywgJy1waHQnLCAnMS4wJywgJy1waCcsICc3LjQnLCAnLXRuJywgJzgnLCAnLW1hJywgJzUwMCcsICctaW1hZScsICc8aW5maWxlLm1hZT4nLCAnLW9tYWUnLCAnPG91dGZpbGUubWFlPic=

>  <s_epik_input>  (1) 
W0NIXTE9W0NIXVtDSDJdW0NIXT1bQ0hdYyhjMTIpW2NIXVtjSF1jKFtjSF0yKS9bQ0hdPVtDSF0vTihbQ0gyXVtDSDJdMylbQ0gyXVtDQEhdKFtDQEBIXTM0KVtDSDJdW0NIMl1PQzQoRilG

>  <s_glide_docking_method>  (1) 
confgen

>  <s_i_glide_gridfile>  (1) 
gpcr_drd2_6luq_protein_autoprepared_prepared

>  <s_lp_Force_Field>  (1) 
S-OPLS

>  <s_lp_Variant>  (1) 
DiffSBDD_15_num_sample_100-1

>  <s_m_source_file>  (1) 
generated__ligand_DiffSBDD_2026-05-06_prepared.sdf

>  <GenAI_Model>  (1) 
DiffSBDD

>  <Protein>  (1) 
generic_title2

$$$$
DiffSBDD_34_num_sample_100
     RDKit          3D

  0  0  0  0  0  0  0  0  0  0999 V3000
M  V30 BEGIN CTAB
M  V30 COUNTS 61 64 0 0 1
M  V30 BEGIN ATOM
M  V30 1 N 7.475621 4.170051 -16.461588 0
M  V30 2 C 6.038769 4.070859 -12.973937 0 CFG=1
M  V30 3 C 10.166739 7.698740 -9.084906 0
M  V30 4 C 11.335154 8.380513 -8.693690 0
M  V30 5 C 7.011772 1.673775 -13.833313 0
M  V30 6 C 11.834932 9.243387 -1.992887 0
M  V30 7 C 6.777286 2.706233 -12.685530 0
M  V30 8 C 7.280430 2.531482 -15.017556 0
M  V30 9 C 11.434839 7.537899 -4.900924 0
M  V30 10 N 12.178828 8.565700 -4.377187 0
M  V30 11 C 9.898913 6.611073 -11.496364 0
M  V30 12 C 9.848908 6.925304 -6.788788 0
M  V30 13 C 9.434838 6.966174 -8.131136 0
M  V30 14 C 10.998499 7.626892 -6.373916 0
M  V30 15 O 12.196316 9.769326 -5.099152 0
M  V30 16 C 6.230077 5.067569 -11.816377 0
M  V30 17 C 12.775083 8.696864 -3.051445 0
M  V30 18 C 5.757344 0.796204 -14.013879 0
M  V30 19 C 11.759026 8.345165 -7.348908 0
M  V30 20 C 7.968363 3.084986 -17.054780 0
M  V30 21 C 7.447275 5.986793 -12.081877 0 CFG=2
M  V30 22 O 8.715851 4.869481 -10.293076 0
M  V30 23 C 7.034834 3.862642 -15.198191 0
M  V30 24 O 11.137962 6.548431 -4.238445 0
M  V30 25 S 7.528163 6.200808 -13.882830 0
M  V30 26 C 9.674418 7.785944 -10.532964 0
M  V30 27 C 8.220036 0.774656 -13.507504 0
M  V30 28 C 8.827148 5.496477 -11.550550 0 CFG=2
M  V30 29 N 7.849363 2.083558 -16.185034 0 CHG=1
M  V30 30 C 6.411541 4.834858 -14.277811 0 CFG=2
M  V30 31 O 10.895500 6.569308 -12.216898 0
M  V30 32 H 4.980270 3.816762 -13.045100 0
M  V30 33 H 11.906286 8.937564 -9.422933 0
M  V30 34 H 12.361565 9.378995 -1.049283 0
M  V30 35 H 11.034842 8.536986 -1.811389 0
M  V30 36 H 11.434768 10.208566 -2.292251 0
M  V30 37 H 7.758130 2.968280 -12.291657 0
M  V30 38 H 6.234845 2.199041 -11.891669 0
M  V30 39 H 9.272532 6.360699 -6.068559 0
M  V30 40 H 8.537047 6.446221 -8.425233 0
M  V30 41 H 12.822783 10.295439 -4.629225 0
M  V30 42 H 5.343572 5.702734 -11.778474 0
M  V30 43 H 6.265320 4.573567 -10.844766 0
M  V30 44 H 13.170221 7.729676 -2.737918 0
M  V30 45 H 13.621151 9.373057 -3.121051 0
M  V30 46 H 5.709066 0.019902 -13.248530 0
M  V30 47 H 5.743367 0.293782 -14.981195 0
M  V30 48 H 4.840020 1.369301 -13.891676 0
M  V30 49 H 12.667100 8.853046 -7.077352 0
M  V30 50 H 8.381736 3.027535 -18.047109 0
M  V30 51 H 7.215006 6.954717 -11.638817 0
M  V30 52 H 9.541716 4.456776 -10.088379 0
M  V30 53 H 7.431841 5.089716 -16.884011 0
M  V30 54 H 10.210364 8.607021 -10.993075 0
M  V30 55 H 8.634839 8.088612 -10.546897 0
M  V30 56 H 8.027161 0.169408 -12.621649 0
M  V30 57 H 9.110151 1.365221 -13.299348 0
M  V30 58 H 8.449241 0.086871 -14.321593 0
M  V30 59 H 9.201578 4.734816 -12.235070 0
M  V30 60 H 5.514475 5.255547 -14.733816 0
M  V30 61 H 8.139447 1.129171 -16.361088 0
M  V30 END ATOM
M  V30 BEGIN BOND
M  V30 1 1 4 3
M  V30 2 1 7 2
M  V30 3 1 7 5
M  V30 4 1 8 5
M  V30 5 1 10 9
M  V30 6 2 13 3
M  V30 7 1 13 12
M  V30 8 1 14 9
M  V30 9 2 14 12
M  V30 10 1 15 10
M  V30 11 1 16 2
M  V30 12 1 17 6
M  V30 13 1 17 10
M  V30 14 1 18 5
M  V30 15 2 19 4
M  V30 16 1 19 14
M  V30 17 1 20 1
M  V30 18 1 21 16
M  V30 19 1 23 1
M  V30 20 2 23 8
M  V30 21 2 24 9
M  V30 22 1 25 21
M  V30 23 1 26 3
M  V30 24 1 26 11
M  V30 25 1 27 5
M  V30 26 1 28 11
M  V30 27 1 28 21
M  V30 28 1 28 22
M  V30 29 1 29 8
M  V30 30 2 29 20
M  V30 31 1 30 2
M  V30 32 1 30 23
M  V30 33 1 30 25
M  V30 34 2 31 11
M  V30 35 1 2 32 CFG=3
M  V30 36 1 33 4
M  V30 37 1 34 6
M  V30 38 1 35 6
M  V30 39 1 36 6
M  V30 40 1 37 7
M  V30 41 1 38 7
M  V30 42 1 39 12
M  V30 43 1 40 13
M  V30 44 1 41 15
M  V30 45 1 42 16
M  V30 46 1 43 16
M  V30 47 1 44 17
M  V30 48 1 45 17
M  V30 49 1 46 18
M  V30 50 1 47 18
M  V30 51 1 48 18
M  V30 52 1 49 19
M  V30 53 1 50 20
M  V30 54 1 21 51 CFG=1
M  V30 55 1 52 22
M  V30 56 1 53 1
M  V30 57 1 54 26
M  V30 58 1 55 26
M  V30 59 1 56 27
M  V30 60 1 57 27
M  V30 61 1 58 27
M  V30 62 1 28 59 CFG=3
M  V30 63 1 30 60 CFG=3
M  V30 64 1 61 29
M  V30 END BOND
M  V30 END CTAB
M  END
>  <i_epik_Tot_Q>  (1) 
1

>  <i_epik_Tot_abs_Q>  (1) 
1

>  <i_i_glide_confnum>  (1) 
164

>  <i_i_glide_lignum>  (1) 
60

>  <i_i_glide_posenum>  (1) 
240

>  <i_i_glide_rotatable_bonds>  (1) 
9

>  <i_lp_mmshare_version>  (1) 
72125

>  <i_m_source_file_index>  (1) 
35

>  <i_f3d_flags>  (1) 
0

>  <num_sample>  (1) 
100

>  <b_lp_Chiralities_Consistent>  (1) 
1

>  <r_epik_Charging_Adjusted_Penalty>  (1) 
0.45828602493401616

>  <r_epik_Ionization_Penalty>  (1) 
0.57733411105264909

>  <r_epik_Ionization_Penalty_Charging>  (1) 
0

>  <r_epik_Ionization_Penalty_Neutral>  (1) 
0.57733411105264909

>  <r_epik_State_Penalty>  (1) 
0.45828602493401616

>  <r_glide_ring_energy>  (1) 
0

>  <r_i_docking_score>  (1) 
-3.6836967668405451

>  <r_i_glide_ecoul>  (1) 
-0.95309775010350384

>  <r_i_glide_eff_state_penalty>  (1) 
0.45828602493401616

>  <r_i_glide_einternal>  (1) 
15.639358906769687

>  <r_i_glide_emodel>  (1) 
-45.282496532253973

>  <r_i_glide_emodel_strain>  (1) 
1.5175897254580661

>  <r_i_glide_energy>  (1) 
-44.03018945291813

>  <r_i_glide_erotb>  (1) 
0.60717041942003669

>  <r_i_glide_esite>  (1) 
-0.018704838680989794

>  <r_i_glide_evdw>  (1) 
-43.077091702814627

>  <r_i_glide_gscore>  (1) 
-4.1419827917745611

>  <r_i_glide_gscore_strain>  (1) 
0

>  <r_i_glide_hbond>  (1) 
0

>  <r_i_glide_ligand_efficiency>  (1) 
-0.11882892796259822

>  <r_i_glide_ligand_efficiency_ln>  (1) 
-0.83078651267066039

>  <r_i_glide_ligand_efficiency_sa>  (1) 
-0.37328689524611675

>  <r_i_glide_lipo>  (1) 
-2.5219123674817525

>  <r_i_glide_metal>  (1) 
-0

>  <r_i_glide_rewards>  (1) 
0.088283242624401348

>  <r_lp_Energy>  (1) 
47.808426999999995

>  <r_lp_tautomer_probability>  (1) 
0.99990000499974985

>  <s_epik_Chemistry_Notes>  (1) 
This compound has a N-S or N-O group and may undergo hydrolysis at high or low pH.

>  <s_epik_cmdline>  (1) 
J2VwaWtfcHl0aG9uJywgJy1waHQnLCAnMS4wJywgJy1waCcsICc3LjQnLCAnLXRuJywgJzgnLCAnLW1hJywgJzUwMCcsICctaW1hZScsICc8aW5maWxlLm1hZT4nLCAnLW9tYWUnLCAnPG91dGZpbGUubWFlPic=

>  <s_epik_input>  (1) 
TjE9W0NIXU49QyhDKFtDSDJdMikoW0NIM10pW0NIM10pW0NASF0xW0NAQEhdKFtDQEBIXTIzKVNbQ0BASF0oW0NIMl0zKVtDQEhdKFtPSF0pQyg9TylbQ0gyXWM0W2NIXVtjSF1jKFtjSF1bY0hdNClDKD1PKU4oW09IXSlbQ0gyXVtDSDNd

>  <s_glide_docking_method>  (1) 
confgen

>  <s_i_glide_gridfile>  (1) 
gpcr_drd2_6luq_protein_autoprepared_prepared

>  <s_lp_Force_Field>  (1) 
S-OPLS

>  <s_lp_Variant>  (1) 
DiffSBDD_34_num_sample_100-1

>  <s_m_source_file>  (1) 
generated__ligand_DiffSBDD_2026-05-06_prepared.sdf

>  <GenAI_Model>  (1) 
DiffSBDD

>  <Protein>  (1) 
generic_title2

$$$$
DiffSBDD_3_num_sample_100
     RDKit          3D

  0  0  0  0  0  0  0  0  0  0999 V3000
M  V30 BEGIN CTAB
M  V30 COUNTS 44 45 0 0 1
M  V30 BEGIN ATOM
M  V30 1 C 7.193747 3.677455 -14.860841 0
M  V30 2 O 5.834849 3.769301 -10.804753 0
M  V30 3 C 8.485052 6.144118 -18.810007 0
M  V30 4 O 6.030940 7.242315 -12.978920 0
M  V30 5 C 7.269858 5.861435 -17.887386 0
M  V30 6 C 6.767146 3.655140 -13.517693 0
M  V30 7 C 7.629398 2.390377 -15.532887 0
M  V30 8 C 9.456534 4.979448 -19.137068 0
M  V30 9 C 8.566652 2.776209 -20.255845 0
M  V30 10 O 7.639858 4.887052 -16.903309 0
M  V30 11 C 6.036522 3.139097 -19.640739 0
M  V30 12 C 6.369442 4.847356 -12.878670 0
M  V30 13 C 6.401119 6.074000 -13.589384 0
M  V30 14 C 5.930547 5.559552 -18.606856 0
M  V30 15 C 5.904130 4.656481 -19.857103 0
M  V30 16 C 9.169326 4.188156 -20.431514 0
M  V30 17 C 7.214261 4.893786 -15.582408 0
M  V30 18 C 6.817349 6.095815 -14.938007 0
M  V30 19 C 5.917274 4.805757 -11.461643 0
M  V30 20 C 7.421894 2.607354 -19.237981 0
M  V30 21 H 8.165647 6.657587 -19.717263 0
M  V30 22 H 9.097688 6.879459 -18.291881 0
M  V30 23 H 6.051876 7.230971 -12.031871 0
M  V30 24 H 7.067853 6.819801 -17.423845 0
M  V30 25 H 6.747696 2.719402 -12.975938 0
M  V30 26 H 7.788797 1.598491 -14.800526 0
M  V30 27 H 6.868293 2.056462 -16.237440 0
M  V30 28 H 8.566059 2.538117 -16.072431 0
M  V30 29 H 10.433720 5.443715 -19.280575 0
M  V30 30 H 9.610734 4.316452 -18.285398 0
M  V30 31 H 8.254140 2.392273 -21.227524 0
M  V30 32 H 9.375473 2.120587 -19.932847 0
M  V30 33 H 5.732198 2.631513 -20.556863 0
M  V30 34 H 5.312194 2.833349 -18.885608 0
M  V30 35 H 5.190266 5.218827 -17.890285 0
M  V30 36 H 5.550215 6.523588 -18.944356 0
M  V30 37 H 6.591736 5.014954 -20.613193 0
M  V30 38 H 4.926250 4.806420 -20.315006 0
M  V30 39 H 8.600299 4.787932 -21.137245 0
M  V30 40 H 10.124041 4.046849 -20.940933 0
M  V30 41 H 6.838095 7.033070 -15.464588 0
M  V30 42 H 5.656238 5.776926 -11.041951 0
M  V30 43 H 7.306411 1.536602 -19.064356 0
M  V30 44 H 7.720686 2.999683 -18.276506 0
M  V30 END ATOM
M  V30 BEGIN BOND
M  V30 1 1 5 3
M  V30 2 2 6 1
M  V30 3 1 7 1
M  V30 4 1 8 3
M  V30 5 1 10 5
M  V30 6 1 12 6
M  V30 7 1 13 4
M  V30 8 2 13 12
M  V30 9 1 14 5
M  V30 10 1 15 11
M  V30 11 1 15 14
M  V30 12 1 16 8
M  V30 13 1 16 9
M  V30 14 1 17 1
M  V30 15 1 17 10
M  V30 16 1 18 13
M  V30 17 2 18 17
M  V30 18 2 19 2
M  V30 19 1 19 12
M  V30 20 1 20 9
M  V30 21 1 20 11
M  V30 22 1 21 3
M  V30 23 1 22 3
M  V30 24 1 23 4
M  V30 25 1 24 5
M  V30 26 1 25 6
M  V30 27 1 26 7
M  V30 28 1 27 7
M  V30 29 1 28 7
M  V30 30 1 29 8
M  V30 31 1 30 8
M  V30 32 1 31 9
M  V30 33 1 32 9
M  V30 34 1 33 11
M  V30 35 1 34 11
M  V30 36 1 35 14
M  V30 37 1 36 14
M  V30 38 1 37 15
M  V30 39 1 38 15
M  V30 40 1 39 16
M  V30 41 1 40 16
M  V30 42 1 41 18
M  V30 43 1 42 19
M  V30 44 1 43 20
M  V30 45 1 44 20
M  V30 END BOND
M  V30 END CTAB
M  END
>  <i_epik_Tot_Q>  (1) 
0

>  <i_epik_Tot_abs_Q>  (1) 
0

>  <i_i_glide_confnum>  (1) 
107

>  <i_i_glide_lignum>  (1) 
5

>  <i_i_glide_posenum>  (1) 
129

>  <i_i_glide_rotatable_bonds>  (1) 
4

>  <i_lp_mmshare_version>  (1) 
72125

>  <i_m_source_file_index>  (1) 
4

>  <i_f3d_flags>  (1) 
0

>  <num_sample>  (1) 
100

>  <b_lp_Chiralities_Consistent>  (1) 
1

>  <r_epik_Charging_Adjusted_Penalty>  (1) 
0.086869227700427584

>  <r_epik_Ionization_Penalty>  (1) 
0.086869227700427626

>  <r_epik_Ionization_Penalty_Charging>  (1) 
0

>  <r_epik_Ionization_Penalty_Neutral>  (1) 
0.086869227700427626

>  <r_epik_State_Penalty>  (1) 
0.086869227700427584

>  <r_glide_ring_energy>  (1) 
1.6418886826786672

>  <r_i_docking_score>  (1) 
-3.6819564502475535

>  <r_i_glide_ecoul>  (1) 
-1.1340900077934553

>  <r_i_glide_eff_state_penalty>  (1) 
0.086869227700427584

>  <r_i_glide_einternal>  (1) 
1.4997388439799302

>  <r_i_glide_emodel>  (1) 
-23.593490534045138

>  <r_i_glide_emodel_strain>  (1) 
0.17229260227797027

>  <r_i_glide_energy>  (1) 
-20.478384149734062

>  <r_i_glide_erotb>  (1) 
0.47104844352190411

>  <r_i_glide_esite>  (1) 
-0.030649127169399566

>  <r_i_glide_evdw>  (1) 
-19.344294141940608

>  <r_i_glide_gscore>  (1) 
-3.768825677947981

>  <r_i_glide_gscore_strain>  (1) 
0

>  <r_i_glide_hbond>  (1) 
0

>  <r_i_glide_ligand_efficiency>  (1) 
-0.18409782251237766

>  <r_i_glide_ligand_efficiency_ln>  (1) 
-0.92147226044568031

>  <r_i_glide_ligand_efficiency_sa>  (1) 
-0.49971837260436036

>  <r_i_glide_lipo>  (1) 
-1.4211892151028043

>  <r_i_glide_metal>  (1) 
-0

>  <r_i_glide_rewards>  (1) 
-1.6507075709316323

>  <r_lp_Energy>  (1) 
28.610363

>  <s_epik_cmdline>  (1) 
J2VwaWtfcHl0aG9uJywgJy1waHQnLCAnMS4wJywgJy1waCcsICc3LjQnLCAnLXRuJywgJzgnLCAnLW1hJywgJzUwMCcsICctaW1hZScsICc8aW5maWxlLm1hZT4nLCAnLW9tYWUnLCAnPG91dGZpbGUubWFlPic=

>  <s_epik_input>  (1) 
W0NIM11jMVtjSF1jKFtDSF09TyljKFtPSF0pW2NIXWMxT1tDSF0yW0NIMl1bQ0gyXVtDSDJdW0NIMl1bQ0gyXVtDSDJdW0NIMl1bQ0gyXTI=

>  <s_glide_docking_method>  (1) 
confgen

>  <s_i_glide_gridfile>  (1) 
gpcr_drd2_6luq_protein_autoprepared_prepared

>  <s_lp_Force_Field>  (1) 
S-OPLS

>  <s_lp_Variant>  (1) 
DiffSBDD_3_num_sample_100-1

>  <s_m_source_file>  (1) 
generated__ligand_DiffSBDD_2026-05-06_prepared.sdf

>  <GenAI_Model>  (1) 
DiffSBDD

>  <Protein>  (1) 
generic_title2

$$$$
DiffSBDD_80_num_sample_100
     RDKit          3D

  0  0  0  0  0  0  0  0  0  0999 V3000
M  V30 BEGIN CTAB
M  V30 COUNTS 57 60 0 0 1
M  V30 BEGIN ATOM
M  V30 1 C 12.696108 4.976501 -17.775630 0
M  V30 2 C 10.103678 5.906273 -20.636208 0
M  V30 3 O 13.717982 1.750300 -17.385778 0
M  V30 4 C 6.515374 7.545865 -20.354044 0
M  V30 5 C 12.737145 1.886304 -18.113880 0
M  V30 6 C 8.962688 7.866534 -21.791207 0
M  V30 7 C 12.744840 2.876470 -19.283776 0
M  V30 8 C 11.469719 1.070321 -17.894197 0
M  V30 9 C 10.283854 3.586314 -21.401459 0
M  V30 10 C 10.515843 4.200509 -19.028073 0 CFG=2
M  V30 11 C 7.957386 8.987648 -21.751318 0 CFG=2
M  V30 12 O 3.432998 12.507231 -22.291869 0 CHG=-1
M  V30 13 C 5.539259 9.371299 -21.648512 0
M  V30 14 C 9.786103 5.183127 -18.095026 0
M  V30 15 C 6.631208 8.577040 -21.206833 0
M  V30 16 C 3.148703 10.197116 -21.710246 0
M  V30 17 C 7.658960 6.684125 -19.994367 0
M  V30 18 F 2.552239 10.770407 -20.664237 0
M  V30 19 C 8.859307 6.802995 -20.728230 0
M  V30 20 C 14.211830 5.214500 -17.862588 0
M  V30 21 C 4.279627 9.300554 -21.185752 0
M  V30 22 C 5.895140 10.275595 -22.659995 0
M  V30 23 C 12.090673 4.263039 -19.017211 0 CFG=1
M  V30 24 O 9.846991 7.879929 -22.647276 0
M  V30 25 S 7.573911 10.142279 -23.184193 0
M  V30 26 N 9.911482 4.494813 -20.323197 0
M  V30 27 F 2.234839 9.419308 -22.292708 0
M  V30 28 C 7.396746 5.662626 -18.921900 0
M  V30 29 C 8.290982 4.995603 -18.137488 0
M  V30 30 C 5.031787 11.160839 -23.199548 0
M  V30 31 C 3.564877 11.299228 -22.781498 0 CFG=2
M  V30 32 H 12.243274 5.961467 -17.660832 0
M  V30 33 H 12.462051 4.428610 -16.861197 0
M  V30 34 H 10.573990 5.901062 -21.619472 0
M  V30 35 H 10.865832 6.414847 -20.044987 0
M  V30 36 H 5.545576 7.301685 -19.951774 0
M  V30 37 H 13.785009 3.025461 -19.574233 0
M  V30 38 H 12.278276 2.389343 -20.138373 0
M  V30 39 H 10.816072 1.575086 -17.182994 0
M  V30 40 H 11.721701 0.087824 -17.495803 0
M  V30 41 H 10.928959 0.933730 -18.829902 0
M  V30 42 H 10.096694 2.551791 -21.111433 0
M  V30 43 H 11.332359 3.692436 -21.680525 0
M  V30 44 H 9.680016 3.791680 -22.285673 0
M  V30 45 H 10.194749 3.199474 -18.746074 0
M  V30 46 H 8.367553 9.680815 -21.024643 0
M  V30 47 H 10.070791 4.951387 -17.068505 0
M  V30 48 H 10.034927 6.238787 -18.190293 0
M  V30 49 H 14.554807 5.831917 -17.031910 0
M  V30 50 H 14.477570 5.730269 -18.785555 0
M  V30 51 H 14.772753 4.281471 -17.823239 0
M  V30 52 H 4.019352 8.601989 -20.408611 0
M  V30 53 H 12.406577 4.878755 -19.858478 0
M  V30 54 H 6.357747 5.427185 -18.744285 0
M  V30 55 H 7.902971 4.285501 -17.421996 0
M  V30 56 H 5.373325 11.827783 -23.973387 0
M  V30 57 H 3.038773 11.034117 -23.700029 0
M  V30 END ATOM
M  V30 BEGIN BOND
M  V30 1 2 5 3
M  V30 2 1 7 5
M  V30 3 1 8 5
M  V30 4 1 11 6
M  V30 5 1 14 10
M  V30 6 2 15 4
M  V30 7 1 15 11
M  V30 8 1 15 13
M  V30 9 1 17 4
M  V30 10 1 18 16
M  V30 11 1 19 2
M  V30 12 1 19 6
M  V30 13 2 19 17
M  V30 14 1 20 1
M  V30 15 2 21 13
M  V30 16 1 21 16
M  V30 17 1 22 13
M  V30 18 1 23 1
M  V30 19 1 23 7
M  V30 20 1 23 10
M  V30 21 2 24 6
M  V30 22 1 25 11
M  V30 23 1 25 22
M  V30 24 1 26 2
M  V30 25 1 26 9
M  V30 26 1 26 10
M  V30 27 1 27 16
M  V30 28 1 28 17
M  V30 29 1 29 14
M  V30 30 2 29 28
M  V30 31 2 30 22
M  V30 32 1 31 12
M  V30 33 1 31 16
M  V30 34 1 31 30
M  V30 35 1 32 1
M  V30 36 1 33 1
M  V30 37 1 34 2
M  V30 38 1 35 2
M  V30 39 1 36 4
M  V30 40 1 37 7
M  V30 41 1 38 7
M  V30 42 1 39 8
M  V30 43 1 40 8
M  V30 44 1 41 8
M  V30 45 1 42 9
M  V30 46 1 43 9
M  V30 47 1 44 9
M  V30 48 1 10 45 CFG=1
M  V30 49 1 11 46 CFG=1
M  V30 50 1 47 14
M  V30 51 1 48 14
M  V30 52 1 49 20
M  V30 53 1 50 20
M  V30 54 1 51 20
M  V30 55 1 52 21
M  V30 56 1 23 53 CFG=3
M  V30 57 1 54 28
M  V30 58 1 55 29
M  V30 59 1 56 30
M  V30 60 1 31 57 CFG=3
M  V30 END BOND
M  V30 END CTAB
M  END
>  <i_epik_Tot_Q>  (1) 
-1

>  <i_epik_Tot_abs_Q>  (1) 
1

>  <i_i_glide_confnum>  (1) 
7

>  <i_i_glide_lignum>  (1) 
165

>  <i_i_glide_posenum>  (1) 
66

>  <i_i_glide_rotatable_bonds>  (1) 
4

>  <i_lp_mmshare_version>  (1) 
72125

>  <i_m_source_file_index>  (1) 
81

>  <i_f3d_flags>  (1) 
0

>  <num_sample>  (1) 
100

>  <b_lp_Chiralities_Consistent>  (1) 
1

>  <r_epik_Charging_Adjusted_Penalty>  (1) 
8.7803366933407872e-06

>  <r_epik_Ionization_Penalty>  (1) 
0.00048743314384941063

>  <r_epik_Ionization_Penalty_Charging>  (1) 
8.7803366933407872e-06

>  <r_epik_Ionization_Penalty_Neutral>  (1) 
0.00047865280715606983

>  <r_epik_State_Penalty>  (1) 
-0

>  <r_glide_ring_energy>  (1) 
0

>  <r_i_docking_score>  (1) 
-3.6728010435495531

>  <r_i_glide_ecoul>  (1) 
-2.05885115378124

>  <r_i_glide_eff_state_penalty>  (1) 
-0

>  <r_i_glide_einternal>  (1) 
3.4098054073308441

>  <r_i_glide_emodel>  (1) 
-35.880779944124377

>  <r_i_glide_emodel_strain>  (1) 
0.010272878261389451

>  <r_i_glide_energy>  (1) 
-30.643842463306893

>  <r_i_glide_erotb>  (1) 
0.20077648214602295

>  <r_i_glide_esite>  (1) 
0

>  <r_i_glide_evdw>  (1) 
-28.584991309525652

>  <r_i_glide_gscore>  (1) 
-3.6728010435495531

>  <r_i_glide_gscore_strain>  (1) 
0

>  <r_i_glide_hbond>  (1) 
0

>  <r_i_glide_ligand_efficiency>  (1) 
-0.11847745301772752

>  <r_i_glide_ligand_efficiency_ln>  (1) 
-0.82832919315472442

>  <r_i_glide_ligand_efficiency_sa>  (1) 
-0.37218277865449956

>  <r_i_glide_lipo>  (1) 
-1.580334247391274

>  <r_i_glide_metal>  (1) 
-0

>  <r_i_glide_rewards>  (1) 
-0.55516603976083334

>  <r_lp_Energy>  (1) 
61.855367999999999

>  <r_lp_tautomer_probability>  (1) 
1

>  <s_epik_cmdline>  (1) 
J2VwaWtfcHl0aG9uJywgJy1waHQnLCAnMS4wJywgJy1waCcsICc3LjQnLCAnLXRuJywgJzgnLCAnLW1hJywgJzUwMCcsICctaW1hZScsICc8aW5maWxlLm1hZT4nLCAnLW9tYWUnLCAnPG91dGZpbGUubWFlPic=

>  <s_epik_input>  (1) 
Tz1DKFtDSDNdKVtDSDJdW0NAQEhdKFtDSDJdW0NIM10pW0NAQEhdKFtDSDJdL1tDSF09W0NIXVwxKU4oW0NIM10pW0NIMl1DKEMyPU8pPUMxW0NIXT1DKFtDQEhdMjMpQz00QyhTMyk9W0NIXVtDQEhdKFtPSF0pQyhGKShGKVtDSF00

>  <s_glide_docking_method>  (1) 
confgen

>  <s_i_glide_gridfile>  (1) 
gpcr_drd2_6luq_protein_autoprepared_prepared

>  <s_lp_Force_Field>  (1) 
S-OPLS

>  <s_lp_Variant>  (1) 
DiffSBDD_80_num_sample_100-4

>  <s_m_source_file>  (1) 
generated__ligand_DiffSBDD_2026-05-06_prepared.sdf

>  <GenAI_Model>  (1) 
DiffSBDD

>  <Protein>  (1) 
generic_title2

$$$$
DiffSBDD_50_num_sample_100
     RDKit          3D

  0  0  0  0  0  0  0  0  0  0999 V3000
M  V30 BEGIN CTAB
M  V30 COUNTS 73 76 0 0 1
M  V30 BEGIN ATOM
M  V30 1 C 9.794501 0.777624 -18.464928 0
M  V30 2 C 8.151975 5.757769 -12.841667 0 CFG=1
M  V30 3 S 8.234826 1.414269 -16.503905 0
M  V30 4 C 6.285968 5.936492 -20.234974 0
M  V30 5 C 9.126333 2.843222 -17.355428 0 CFG=1
M  V30 6 C 5.729541 5.068562 -13.648285 0
M  V30 7 F 10.235905 8.906123 -20.694814 0
M  V30 8 C 7.381328 3.530584 -12.466146 0
M  V30 9 O 6.552726 6.169301 -11.091664 0
M  V30 10 O 5.464451 6.249717 -13.960942 0
M  V30 11 C 10.180503 5.587115 -18.520486 0
M  V30 12 C 9.066621 0.298115 -17.491533 0
M  V30 13 C 9.264331 7.758551 -10.830940 0
M  V30 14 O 9.696176 5.158897 -23.177726 0 CHG=-1
M  V30 15 C 7.613024 5.315850 -20.813239 0 CFG=2
M  V30 16 F 11.363107 8.276114 -22.443995 0
M  V30 17 C 6.196860 7.248588 -20.306000 0
M  V30 18 N 10.197070 5.848417 -22.295416 0 CHG=1
M  V30 19 O 9.481484 5.334997 -13.111735 0
M  V30 20 C 7.671004 4.076982 -14.915108 0
M  V30 21 O 8.418958 4.589726 -19.882485 0
M  V30 22 C 9.451882 6.983133 -21.820535 0 CHG=-1
M  V30 23 C 9.852346 2.261577 -18.660430 0
M  V30 24 C 7.675641 4.169292 -11.095592 0
M  V30 25 C 8.706647 5.148451 -18.602930 0 CFG=1
M  V30 26 C 7.952734 4.944294 -16.170042 0 CFG=2
M  V30 27 C 9.231688 8.026637 -12.339241 0
M  V30 28 C 7.841303 5.643322 -11.339901 0 CFG=1
M  V30 29 C 10.148490 8.335958 -21.896352 0
M  V30 30 N 8.892392 -1.029093 -17.156837 0
M  V30 31 O 4.886486 4.169363 -13.426852 0 CHG=-1
M  V30 32 C 8.921590 6.302993 -10.445123 0
M  V30 33 C 8.134309 7.268579 -13.156520 0
M  V30 34 O 6.830338 5.760935 -16.438604 0
M  V30 35 C 8.236858 4.141401 -17.500766 0 CFG=2
M  V30 36 C 8.160540 6.757789 -21.189778 0
M  V30 37 C 7.231832 4.675018 -13.531764 0 CFG=2
M  V30 38 O 11.293920 5.626338 -21.792724 0
M  V30 39 C 7.328946 7.749488 -20.884521 0
M  V30 40 H 10.351767 0.138470 -19.133819 0
M  V30 41 H 5.517576 5.304301 -19.815893 0
M  V30 42 H 9.947376 3.107395 -16.691459 0
M  V30 43 H 6.542706 2.838051 -12.404983 0
M  V30 44 H 8.232239 2.892275 -12.707895 0
M  V30 45 H 6.634843 6.863978 -10.420225 0
M  V30 46 H 10.441299 5.939773 -17.523698 0
M  V30 47 H 10.873459 4.792736 -18.784202 0
M  V30 48 H 10.372522 6.411425 -19.207598 0
M  V30 49 H 8.634837 8.486941 -10.333714 0
M  V30 50 H 10.259265 7.993819 -10.450955 0
M  V30 51 H 7.406721 4.722785 -21.704124 0
M  V30 52 H 5.359950 7.837735 -19.958701 0
M  V30 53 H 10.065554 5.876557 -12.606433 0
M  V30 54 H 8.580408 3.506604 -14.743696 0
M  V30 55 H 6.903394 3.352202 -15.186991 0
M  V30 56 H 9.328027 2.469882 -19.589113 0
M  V30 57 H 10.887661 2.589840 -18.745007 0
M  V30 58 H 8.611246 3.769177 -10.706246 0
M  V30 59 H 6.897213 3.952878 -10.359879 0
M  V30 60 H 8.144328 6.072316 -18.491943 0
M  V30 61 H 8.794844 5.596355 -15.938079 0
M  V30 62 H 9.115931 9.096473 -12.500661 0
M  V30 63 H 10.227001 7.769252 -12.691668 0
M  V30 64 H 9.556365 9.000597 -22.525511 0
M  V30 65 H 9.338369 -1.772882 -17.671878 0
M  V30 66 H 8.634861 6.246946 -9.394382 0
M  V30 67 H 9.834804 5.715876 -10.519218 0
M  V30 68 H 7.171516 7.719629 -12.920181 0
M  V30 69 H 8.234833 7.404000 -14.226957 0
M  V30 70 H 7.052228 6.396149 -17.100977 0
M  V30 71 H 7.268699 3.767033 -17.837800 0
M  V30 72 H 7.519747 8.796895 -21.065222 0
M  V30 73 H 8.300537 -1.312689 -16.384104 0
M  V30 END ATOM
M  V30 BEGIN BOND
M  V30 1 1 5 3
M  V30 2 2 10 6
M  V30 3 2 12 1
M  V30 4 1 12 3
M  V30 5 1 15 4
M  V30 6 2 17 4
M  V30 7 1 18 14
M  V30 8 1 2 19 CFG=1
M  V30 9 1 21 15
M  V30 10 1 22 18
M  V30 11 1 23 1
M  V30 12 1 23 5
M  V30 13 1 24 8
M  V30 14 1 25 11
M  V30 15 1 25 21
M  V30 16 1 26 20
M  V30 17 1 27 13
M  V30 18 1 28 2
M  V30 19 1 28 9 CFG=3
M  V30 20 1 28 24
M  V30 21 1 29 7
M  V30 22 1 29 16
M  V30 23 1 29 22
M  V30 24 1 30 12
M  V30 25 1 31 6
M  V30 26 1 32 13
M  V30 27 1 32 28
M  V30 28 1 33 2
M  V30 29 1 33 27
M  V30 30 1 34 26
M  V30 31 1 35 5
M  V30 32 1 35 25
M  V30 33 1 35 26
M  V30 34 1 36 15
M  V30 35 1 36 22
M  V30 36 1 37 2
M  V30 37 1 37 6
M  V30 38 1 37 8
M  V30 39 1 37 20 CFG=3
M  V30 40 2 38 18
M  V30 41 1 39 17
M  V30 42 2 39 36
M  V30 43 1 40 1
M  V30 44 1 41 4
M  V30 45 1 5 42 CFG=1
M  V30 46 1 43 8
M  V30 47 1 44 8
M  V30 48 1 45 9
M  V30 49 1 46 11
M  V30 50 1 47 11
M  V30 51 1 48 11
M  V30 52 1 49 13
M  V30 53 1 50 13
M  V30 54 1 15 51 CFG=3
M  V30 55 1 52 17
M  V30 56 1 53 19
M  V30 57 1 54 20
M  V30 58 1 55 20
M  V30 59 1 56 23
M  V30 60 1 57 23
M  V30 61 1 58 24
M  V30 62 1 59 24
M  V30 63 1 25 60 CFG=1
M  V30 64 1 26 61 CFG=1
M  V30 65 1 62 27
M  V30 66 1 63 27
M  V30 67 1 64 29
M  V30 68 1 65 30
M  V30 69 1 66 32
M  V30 70 1 67 32
M  V30 71 1 68 33
M  V30 72 1 69 33
M  V30 73 1 70 34
M  V30 74 1 35 71 CFG=3
M  V30 75 1 72 39
M  V30 76 1 73 30
M  V30 END BOND
M  V30 END CTAB
M  END
>  <i_epik_Tot_Q>  (1) 
-2

>  <i_epik_Tot_abs_Q>  (1) 
4

>  <i_i_glide_confnum>  (1) 
2014

>  <i_i_glide_lignum>  (1) 
95

>  <i_i_glide_posenum>  (1) 
145

>  <i_i_glide_rotatable_bonds>  (1) 
14

>  <i_lp_mmshare_version>  (1) 
72125

>  <i_m_source_file_index>  (1) 
51

>  <i_f3d_flags>  (1) 
0

>  <num_sample>  (1) 
100

>  <b_lp_Chiralities_Consistent>  (1) 
1

>  <r_epik_Charging_Adjusted_Penalty>  (1) 
0.034577084899783249

>  <r_epik_Ionization_Penalty>  (1) 
0.017860666668860211

>  <r_epik_Ionization_Penalty_Charging>  (1) 
0.017835632133054159

>  <r_epik_Ionization_Penalty_Neutral>  (1) 
2.5034535806051729e-05

>  <r_epik_State_Penalty>  (1) 
0.01674145276672909

>  <r_glide_ring_energy>  (1) 
0

>  <r_i_docking_score>  (1) 
-3.6632781451662964

>  <r_i_glide_ecoul>  (1) 
-6.5256605322025614

>  <r_i_glide_eff_state_penalty>  (1) 
0.01674145276672909

>  <r_i_glide_einternal>  (1) 
36.391238730520662

>  <r_i_glide_emodel>  (1) 
-11.0396841600081

>  <r_i_glide_emodel_strain>  (1) 
2.3157416034833886

>  <r_i_glide_energy>  (1) 
-26.703217887553127

>  <r_i_glide_erotb>  (1) 
0.41647013485751849

>  <r_i_glide_esite>  (1) 
0

>  <r_i_glide_evdw>  (1) 
-20.177557355350565

>  <r_i_glide_gscore>  (1) 
-3.6800195979330255

>  <r_i_glide_gscore_strain>  (1) 
0

>  <r_i_glide_hbond>  (1) 
-0.1566510698280224

>  <r_i_glide_ligand_efficiency>  (1) 
-0.093930208850417848

>  <r_i_glide_ligand_efficiency_ln>  (1) 
-0.78551082265772154

>  <r_i_glide_ligand_efficiency_sa>  (1) 
-0.31853719909824763

>  <r_i_glide_lipo>  (1) 
-1.3021616611850264

>  <r_i_glide_metal>  (1) 
-0

>  <r_i_glide_rewards>  (1) 
-0.64995005417958185

>  <r_lp_Energy>  (1) 
37.244749999999996

>  <s_epik_Chemistry_Notes>  (1) 
This compound has an imine and may undergo hydrolysis.

>  <s_epik_cmdline>  (1) 
J2VwaWtfcHl0aG9uJywgJy1waHQnLCAnMS4wJywgJy1waCcsICc3LjQnLCAnLXRuJywgJzgnLCAnLW1hJywgJzUwMCcsICctaW1hZScsICc8aW5maWxlLm1hZT4nLCAnLW9tYWUnLCAnPG91dGZpbGUubWFlPic=

>  <s_epik_input>  (1) 
W0NIMl0xW0NIMl1bQ0gyXVtDSDJdW0NAQF0oW09IXSkoW0NAXTEyW09IXSlbQ0gyXVtDSDJdW0NAXTIoQyg9TylbT0hdKVtDSDJdW0NASF0oW09IXSlbQ0BIXShbQ0BIXTNTQyg9Ti9bSF0pXFtDSDJdW0NIMl0zKVtDQEBIXShbQ0gzXSlPW0NASF00W0NIXT1bQ0hdW0NIXT1DNFtDQEBIXShbTitdKFtPLV0pPU8pW0NIXShGKUY=

>  <s_glide_docking_method>  (1) 
confgen

>  <s_i_glide_gridfile>  (1) 
gpcr_drd2_6luq_protein_autoprepared_prepared

>  <s_lp_Force_Field>  (1) 
S-OPLS

>  <s_lp_Variant>  (1) 
DiffSBDD_50_num_sample_100-1

>  <s_m_source_file>  (1) 
generated__ligand_DiffSBDD_2026-05-06_prepared.sdf

>  <GenAI_Model>  (1) 
DiffSBDD

>  <Protein>  (1) 
generic_title2

$$$$
DiffSBDD_56_num_sample_100
     RDKit          3D

  0  0  0  0  0  0  0  0  0  0999 V3000
M  V30 BEGIN CTAB
M  V30 COUNTS 70 76 0 0 1
M  V30 BEGIN ATOM
M  V30 1 O 10.799242 7.394550 -7.850371 0
M  V30 2 C 9.928410 2.008033 -19.443222 0
M  V30 3 C 13.529798 3.192354 -19.541273 0
M  V30 4 C 11.406123 4.630155 -19.991169 0
M  V30 5 C 8.216595 4.992032 -12.302889 0 CFG=2
M  V30 6 C 9.658596 4.747201 -18.026283 0
M  V30 7 F 9.002632 4.476844 -20.349592 0
M  V30 8 C 9.012445 5.978772 -8.681122 0
M  V30 9 C 7.636902 4.675247 -16.517880 0 CFG=1
M  V30 10 C 10.140923 6.793941 -8.918243 0
M  V30 11 C 8.683851 1.941282 -19.038123 0
M  V30 12 C 9.055149 5.418027 -14.717418 0 CFG=1
M  V30 13 C 6.711632 4.183623 -15.435132 0
M  V30 14 N 9.386633 5.304461 -13.256894 0 CFG=1 CHG=1
M  V30 15 C 11.733510 1.104730 -20.865993 0
M  V30 16 C 9.951819 4.929491 -19.527467 0 CFG=2
M  V30 17 C 9.910209 6.329578 -11.297638 0
M  V30 18 C 11.875399 8.334809 -8.056281 0
M  V30 19 C 11.785910 7.767272 -10.475698 0
M  V30 20 C 11.150763 2.128702 -19.903231 0
M  V30 21 C 8.522563 5.769338 -7.273337 0
M  V30 22 C 10.319361 6.400358 -12.702305 0
M  V30 23 C 10.358330 5.369278 -15.585537 0
M  V30 24 C 12.390670 8.392207 -9.475867 0
M  V30 25 C 10.456934 5.404175 -17.131026 0
M  V30 26 C 10.602562 6.969306 -10.241807 0
M  V30 27 C 12.781652 3.220744 -18.241007 0
M  V30 28 C 8.186601 4.299740 -15.187239 0 CFG=1
M  V30 29 O 12.542777 0.169314 -20.181546 0
M  V30 30 C 8.444685 4.023205 -17.554600 0
M  V30 31 C 8.825985 5.578342 -11.075186 0
M  V30 32 C 7.873997 3.501608 -12.202120 0
M  V30 33 C 8.000147 2.823471 -18.069378 0
M  V30 34 C 8.338323 5.368815 -9.772289 0
M  V30 35 C 12.008138 3.296629 -19.548594 0
M  V30 36 H 14.016557 2.258334 -19.805439 0
M  V30 37 H 14.097756 4.083270 -19.803295 0
M  V30 38 H 11.448217 4.679955 -21.080349 0
M  V30 39 H 12.059645 5.430239 -19.642656 0
M  V30 40 H 7.340182 5.584165 -12.569992 0
M  V30 41 H 7.484546 5.725739 -16.763207 0
M  V30 42 H 8.106912 1.089250 -19.365782 0
M  V30 43 H 8.508286 6.348166 -14.864014 0
M  V30 44 H 6.333117 3.166242 -15.489204 0
M  V30 45 H 6.063141 4.905836 -14.943525 0
M  V30 46 H 12.308276 1.604777 -21.646742 0
M  V30 47 H 10.933353 0.555498 -21.365630 0
M  V30 48 H 9.832482 6.002824 -19.678829 0
M  V30 49 H 11.545604 9.328030 -7.752975 0
M  V30 50 H 12.701113 8.058682 -7.408440 0
M  V30 51 H 12.175804 7.818139 -11.478200 0
M  V30 52 H 7.672393 5.089765 -7.236019 0
M  V30 53 H 9.345269 5.369319 -6.691667 0
M  V30 54 H 8.234843 6.718421 -6.822632 0
M  V30 55 H 11.372961 6.169426 -12.857734 0
M  V30 56 H 10.087659 7.407911 -13.023987 0
M  V30 57 H 10.889322 4.453671 -15.362028 0
M  V30 58 H 11.034842 6.159770 -15.262140 0
M  V30 59 H 13.282114 8.969307 -9.655812 0
M  V30 60 H 11.291190 5.972128 -17.517274 0
M  V30 61 H 12.882916 4.121124 -17.640484 0
M  V30 62 H 12.728671 2.293597 -17.673021 0
M  V30 63 H 8.634837 3.317372 -15.083855 0
M  V30 64 H 13.233482 0.635683 -19.736298 0
M  V30 65 H 7.060645 3.370361 -11.491664 0
M  V30 66 H 7.497900 3.063577 -13.120050 0
M  V30 67 H 8.736930 2.914320 -11.891645 0
M  V30 68 H 7.067306 2.450064 -17.672685 0
M  V30 69 H 7.466060 4.754366 -9.603330 0
M  V30 70 H 9.966376 4.478429 -13.186193 0
M  V30 END ATOM
M  V30 BEGIN BOND
M  V30 1 1 10 1
M  V30 2 1 10 8
M  V30 3 2 11 2
M  V30 4 1 13 9
M  V30 5 1 14 5
M  V30 6 1 14 12
M  V30 7 1 16 4
M  V30 8 1 16 6
M  V30 9 1 16 7
M  V30 10 1 18 1
M  V30 11 2 20 2
M  V30 12 1 20 15
M  V30 13 1 21 8
M  V30 14 1 22 14
M  V30 15 1 22 17
M  V30 16 1 23 12
M  V30 17 1 24 18
M  V30 18 2 24 19
M  V30 19 2 25 6
M  V30 20 1 25 23
M  V30 21 2 26 10
M  V30 22 1 26 17
M  V30 23 1 26 19
M  V30 24 1 27 3
M  V30 25 1 28 9
M  V30 26 1 28 12
M  V30 27 1 28 13
M  V30 28 1 29 15
M  V30 29 1 30 6
M  V30 30 1 30 9
M  V30 31 1 31 5
M  V30 32 2 31 17
M  V30 33 1 32 5
M  V30 34 1 33 11
M  V30 35 2 33 30
M  V30 36 2 34 8
M  V30 37 1 34 31
M  V30 38 1 35 3
M  V30 39 1 35 4
M  V30 40 1 35 20
M  V30 41 1 35 27
M  V30 42 1 36 3
M  V30 43 1 37 3
M  V30 44 1 38 4
M  V30 45 1 39 4
M  V30 46 1 5 40 CFG=3
M  V30 47 1 9 41 CFG=3
M  V30 48 1 42 11
M  V30 49 1 12 43 CFG=1
M  V30 50 1 44 13
M  V30 51 1 45 13
M  V30 52 1 46 15
M  V30 53 1 47 15
M  V30 54 1 16 48 CFG=1
M  V30 55 1 49 18
M  V30 56 1 50 18
M  V30 57 1 51 19
M  V30 58 1 52 21
M  V30 59 1 53 21
M  V30 60 1 54 21
M  V30 61 1 55 22
M  V30 62 1 56 22
M  V30 63 1 57 23
M  V30 64 1 58 23
M  V30 65 1 59 24
M  V30 66 1 60 25
M  V30 67 1 61 27
M  V30 68 1 62 27
M  V30 69 1 28 63 CFG=3
M  V30 70 1 64 29
M  V30 71 1 65 32
M  V30 72 1 66 32
M  V30 73 1 67 32
M  V30 74 1 68 33
M  V30 75 1 69 34
M  V30 76 1 14 70 CFG=3
M  V30 END BOND
M  V30 END CTAB
M  END
>  <i_epik_Tot_Q>  (1) 
1

>  <i_epik_Tot_abs_Q>  (1) 
1

>  <i_i_glide_confnum>  (1) 
4

>  <i_i_glide_lignum>  (1) 
112

>  <i_i_glide_posenum>  (1) 
388

>  <i_i_glide_rotatable_bonds>  (1) 
3

>  <i_lp_mmshare_version>  (1) 
72125

>  <i_m_source_file_index>  (1) 
57

>  <i_f3d_flags>  (1) 
0

>  <num_sample>  (1) 
100

>  <b_lp_Chiralities_Consistent>  (1) 
1

>  <r_epik_Charging_Adjusted_Penalty>  (1) 
0.14231297848205576

>  <r_epik_Ionization_Penalty>  (1) 
0.071157794031890806

>  <r_epik_Ionization_Penalty_Charging>  (1) 
0.071156489241027923

>  <r_epik_Ionization_Penalty_Neutral>  (1) 
1.3047908628845687e-06

>  <r_epik_State_Penalty>  (1) 
0.071156489241027826

>  <r_glide_ring_energy>  (1) 
0

>  <r_i_docking_score>  (1) 
-3.6361680223565536

>  <r_i_glide_ecoul>  (1) 
-3.2522966583609501

>  <r_i_glide_eff_state_penalty>  (1) 
0.071156489241027826

>  <r_i_glide_einternal>  (1) 
0.80758895843821321

>  <r_i_glide_emodel>  (1) 
-22.541468671438068

>  <r_i_glide_emodel_strain>  (1) 
0.47534928987516878

>  <r_i_glide_energy>  (1) 
-18.265073161318377

>  <r_i_glide_erotb>  (1) 
0.18105195314905365

>  <r_i_glide_esite>  (1) 
0

>  <r_i_glide_evdw>  (1) 
-15.012776502957426

>  <r_i_glide_gscore>  (1) 
-3.7073245115975815

>  <r_i_glide_gscore_strain>  (1) 
0

>  <r_i_glide_hbond>  (1) 
0

>  <r_i_glide_ligand_efficiency>  (1) 
-0.10389051492447296

>  <r_i_glide_ligand_efficiency_ln>  (1) 
-0.79821958130849713

>  <r_i_glide_ligand_efficiency_sa>  (1) 
-0.33983276331758844

>  <r_i_glide_lipo>  (1) 
-1.5632692772082557

>  <r_i_glide_metal>  (1) 
-0

>  <r_i_glide_rewards>  (1) 
-1.0866238636363654

>  <r_lp_Energy>  (1) 
55.302659999999996

>  <s_epik_cmdline>  (1) 
J2VwaWtfcHl0aG9uJywgJy1waHQnLCAnMS4wJywgJy1waCcsICc3LjQnLCAnLXRuJywgJzgnLCAnLW1hJywgJzUwMCcsICctaW1hZScsICc8aW5maWxlLm1hZT4nLCAnLW9tYWUnLCAnPG91dGZpbGUubWFlPic=

>  <s_epik_input>  (1) 
TzFbQ0gyXVtDSF09W0NIXWMoYzEyKWMzYyhbY0hdYzJbQ0gzXSlbQ0BIXShbQ0gzXSlOKFtDSDJdMylbQ0BASF0oW0NIMl1bQ0hdNClbQ0BASF0oW0NIMl01KVtDQEhdNUMoXEM9NFtDQEhdKEYpW0NIMl1DNjdbQ0gyXVtDSDJdNyk9W0NIXVxbQ0hdPUM9QzZbQ0gyXVtPSF0=

>  <s_glide_docking_method>  (1) 
confgen

>  <s_i_glide_gridfile>  (1) 
gpcr_drd2_6luq_protein_autoprepared_prepared

>  <s_lp_Force_Field>  (1) 
S-OPLS

>  <s_lp_Variant>  (1) 
DiffSBDD_56_num_sample_100-1

>  <s_m_source_file>  (1) 
generated__ligand_DiffSBDD_2026-05-06_prepared.sdf

>  <GenAI_Model>  (1) 
DiffSBDD

>  <Protein>  (1) 
generic_title2

$$$$
DiffSBDD_7_num_sample_100
     RDKit          3D

  0  0  0  0  0  0  0  0  0  0999 V3000
M  V30 BEGIN CTAB
M  V30 COUNTS 61 65 0 0 1
M  V30 BEGIN ATOM
M  V30 1 C 8.279659 5.203893 -15.467853 0 CFG=1
M  V30 2 C 9.086313 5.472455 -9.363743 0
M  V30 3 C 9.700248 6.723618 -9.128712 0
M  V30 4 O 8.039805 4.009197 -14.728459 0
M  V30 5 C 11.173384 3.713444 -17.497258 0 CFG=2
M  V30 6 C 14.945637 0.144730 -18.473035 0
M  V30 7 F 11.057662 7.196113 -7.309567 0
M  V30 8 C 12.431509 0.486469 -18.120496 0
M  V30 9 C 12.816802 2.184067 -20.058597 0 CFG=2
M  V30 10 C 9.789869 7.283269 -7.713482 0
M  V30 11 C 8.318145 5.184557 -13.945521 0 CFG=1
M  V30 12 C 13.784924 0.031898 -21.261522 0
M  V30 13 F 9.434534 8.567880 -7.685108 0
M  V30 14 C 9.712795 5.667181 -17.446856 0 CFG=1
M  V30 15 C 11.840077 4.892842 -18.243130 0
M  V30 16 N 9.605860 5.073099 -16.122356 0 CFG=2 CHG=1
M  V30 17 C 11.096736 6.159442 -17.793086 0
M  V30 18 C 11.609370 2.067100 -21.013196 0
M  V30 19 O 11.475819 2.969455 -21.869014 0
M  V30 20 C 14.057672 1.393745 -20.569678 0 CFG=2
M  V30 21 F 9.035001 6.605911 -6.848747 0
M  V30 22 O 10.854405 1.079913 -20.866626 0 CHG=-1
M  V30 23 C 10.242258 7.452263 -10.209005 0
M  V30 24 C 10.189395 6.925481 -11.514928 0
M  V30 25 C 9.596930 5.069580 -13.140583 0
M  V30 26 O 16.393318 1.116816 -20.092106 0
M  V30 27 C 9.594662 5.667082 -11.745754 0
M  V30 28 C 12.459602 1.958214 -18.558842 0 CFG=1
M  V30 29 C 13.775485 -0.200330 -17.891995 0
M  V30 30 C 9.033838 4.946976 -10.670759 0
M  V30 31 O 11.175319 2.511069 -18.253192 0
M  V30 32 C 9.751189 4.183995 -17.265214 0 CFG=2
M  V30 33 C 15.137189 1.281005 -19.468572 0 CFG=2
M  V30 34 H 7.430783 5.554994 -16.052483 0
M  V30 35 H 8.666792 4.912165 -8.541442 0
M  V30 36 H 11.655873 3.544900 -16.533943 0
M  V30 37 H 15.831612 -0.422322 -18.230998 0
M  V30 38 H 11.818319 -0.118457 -18.787025 0
M  V30 39 H 11.927488 0.446260 -17.155208 0
M  V30 40 H 13.110508 3.231837 -20.117696 0
M  V30 41 H 7.448830 5.556677 -13.405841 0
M  V30 42 H 13.225671 -0.650930 -20.624310 0
M  V30 43 H 13.213700 0.156755 -22.181852 0
M  V30 44 H 14.712749 -0.466231 -21.541179 0
M  V30 45 H 8.818447 6.168715 -17.812505 0
M  V30 46 H 12.916329 4.950123 -18.077200 0
M  V30 47 H 11.676949 4.778508 -19.315477 0
M  V30 48 H 11.567299 6.609936 -16.918083 0
M  V30 49 H 11.059139 6.901855 -18.591938 0
M  V30 50 H 14.479366 2.029179 -21.351578 0
M  V30 51 H 10.708876 8.409735 -10.032350 0
M  V30 52 H 10.619924 7.477480 -12.336155 0
M  V30 53 H 9.835018 4.010071 -13.042008 0
M  V30 54 H 10.413057 5.529111 -13.694655 0
M  V30 55 H 16.326123 0.398560 -20.703011 0
M  V30 56 H 13.200572 2.459029 -17.934203 0
M  V30 57 H 13.764882 -1.030341 -17.204979 0
M  V30 58 H 8.579010 3.983229 -10.845590 0
M  V30 59 H 8.890571 3.532096 -17.405917 0
M  V30 60 H 15.219116 2.215775 -18.913086 0
M  V30 61 H 10.436280 5.129676 -15.549547 0
M  V30 END ATOM
M  V30 BEGIN BOND
M  V30 1 2 3 2
M  V30 2 1 4 1
M  V30 3 1 10 3
M  V30 4 1 10 7
M  V30 5 1 11 1
M  V30 6 1 11 4
M  V30 7 1 13 10
M  V30 8 1 15 5
M  V30 9 1 16 1
M  V30 10 1 16 14
M  V30 11 1 17 14
M  V30 12 1 17 15
M  V30 13 1 18 9
M  V30 14 2 19 18
M  V30 15 1 20 9
M  V30 16 1 20 12
M  V30 17 1 21 10
M  V30 18 1 22 18
M  V30 19 1 23 3
M  V30 20 2 24 23
M  V30 21 1 25 11
M  V30 22 1 27 24
M  V30 23 1 27 25
M  V30 24 1 28 8
M  V30 25 1 28 9
M  V30 26 2 29 6
M  V30 27 1 29 8
M  V30 28 1 30 2
M  V30 29 2 30 27
M  V30 30 1 31 5
M  V30 31 1 31 28
M  V30 32 1 32 5
M  V30 33 1 32 14
M  V30 34 1 32 16
M  V30 35 1 33 6
M  V30 36 1 33 20
M  V30 37 1 33 26
M  V30 38 1 1 34 CFG=1
M  V30 39 1 35 2
M  V30 40 1 5 36 CFG=1
M  V30 41 1 37 6
M  V30 42 1 38 8
M  V30 43 1 39 8
M  V30 44 1 9 40 CFG=1
M  V30 45 1 11 41 CFG=1
M  V30 46 1 42 12
M  V30 47 1 43 12
M  V30 48 1 44 12
M  V30 49 1 14 45 CFG=3
M  V30 50 1 46 15
M  V30 51 1 47 15
M  V30 52 1 48 17
M  V30 53 1 49 17
M  V30 54 1 20 50 CFG=3
M  V30 55 1 51 23
M  V30 56 1 52 24
M  V30 57 1 53 25
M  V30 58 1 54 25
M  V30 59 1 55 26
M  V30 60 1 28 56 CFG=1
M  V30 61 1 57 29
M  V30 62 1 58 30
M  V30 63 1 32 59 CFG=3
M  V30 64 1 33 60 CFG=1
M  V30 65 1 16 61 CFG=1
M  V30 END BOND
M  V30 END CTAB
M  END
>  <i_epik_Tot_Q>  (1) 
0

>  <i_epik_Tot_abs_Q>  (1) 
2

>  <i_i_glide_confnum>  (1) 
18

>  <i_i_glide_lignum>  (1) 
13

>  <i_i_glide_posenum>  (1) 
381

>  <i_i_glide_rotatable_bonds>  (1) 
8

>  <i_lp_mmshare_version>  (1) 
72125

>  <i_m_source_file_index>  (1) 
8

>  <i_f3d_flags>  (1) 
2

>  <num_sample>  (1) 
100

>  <b_lp_Chiralities_Consistent>  (1) 
0

>  <r_epik_Charging_Adjusted_Penalty>  (1) 
0.97984479296791849

>  <r_epik_Ionization_Penalty>  (1) 
0.49008068678085143

>  <r_epik_Ionization_Penalty_Charging>  (1) 
0.49008059146589078

>  <r_epik_Ionization_Penalty_Neutral>  (1) 
9.5314960655475233e-08

>  <r_epik_State_Penalty>  (1) 
0.48976420150202771

>  <r_glide_ring_energy>  (1) 
0.19782434185497597

>  <r_i_docking_score>  (1) 
-3.6306990797119285

>  <r_i_glide_ecoul>  (1) 
-3.1116047452869617

>  <r_i_glide_eff_state_penalty>  (1) 
0.48976420150202771

>  <r_i_glide_einternal>  (1) 
8.5477045220294325

>  <r_i_glide_emodel>  (1) 
-35.773097938100932

>  <r_i_glide_emodel_strain>  (1) 
0.11911822010492301

>  <r_i_glide_energy>  (1) 
-32.771482072821364

>  <r_i_glide_erotb>  (1) 
0.46174917305607022

>  <r_i_glide_esite>  (1) 
-0.15843478183675883

>  <r_i_glide_evdw>  (1) 
-29.659877327534399

>  <r_i_glide_gscore>  (1) 
-4.1204632812139561

>  <r_i_glide_gscore_strain>  (1) 
0

>  <r_i_glide_hbond>  (1) 
0

>  <r_i_glide_ligand_efficiency>  (1) 
-0.11002118423369481

>  <r_i_glide_ligand_efficiency_ln>  (1) 
-0.80744867657418584

>  <r_i_glide_ligand_efficiency_sa>  (1) 
-0.35289672545637168

>  <r_i_glide_lipo>  (1) 
-1.2610900447411573

>  <r_i_glide_metal>  (1) 
-0

>  <r_i_glide_rewards>  (1) 
-1.2129530495223459

>  <r_lp_Energy>  (1) 
40.093779999999995

>  <s_epik_Chemistry_Notes>  (1) 
This compound contains an acetal/aminal-like group ( X-CH(R)-Y where X, Y are N, S, or O) that may be acid/base labile, releasing an aldehyde.

>  <s_epik_cmdline>  (1) 
J2VwaWtfcHl0aG9uJywgJy1waHQnLCAnMS4wJywgJy1waCcsICc3LjQnLCAnLXRuJywgJzgnLCAnLW1hJywgJzUwMCcsICctaW1hZScsICc8aW5maWxlLm1hZT4nLCAnLW9tYWUnLCAnPG91dGZpbGUubWFlPic=

>  <s_epik_input>  (1) 
RkMoRikoRiljMVtjSF1bY0hdYyhbY0hdW2NIXTEpW0NIMl1bQ0BASF0yT1tDSF0yTjNbQ0BASF0oW0NASF0zNClbQ0BIXShbQ0gyXVtDSDJdNClPW0NASF01W0NIMl1bQ0hdPVtDSF1bQ0BASF0oW09IXSlbQ0BASF0oW0NIM10pW0NASF01Qyg9TylbT0hd

>  <s_glide_docking_method>  (1) 
confgen

>  <s_i_glide_gridfile>  (1) 
gpcr_drd2_6luq_protein_autoprepared_prepared

>  <s_lp_Force_Field>  (1) 
S-OPLS

>  <s_lp_Variant>  (1) 
DiffSBDD_7_num_sample_100-2

>  <s_m_source_file>  (1) 
generated__ligand_DiffSBDD_2026-05-06_prepared.sdf

>  <GenAI_Model>  (1) 
DiffSBDD

>  <Protein>  (1) 
generic_title2

$$$$
DiffSBDD_65_num_sample_100
     RDKit          3D

  0  0  0  0  0  0  0  0  0  0999 V3000
M  V30 BEGIN CTAB
M  V30 COUNTS 36 36 0 0 1
M  V30 BEGIN ATOM
M  V30 1 C 9.039598 6.416954 -7.356551 0
M  V30 2 C 7.818711 5.978425 -12.890295 0
M  V30 3 C 11.982606 9.057774 -4.073700 0
M  V30 4 C 10.678214 6.472533 -1.848207 0
M  V30 5 S 9.034695 4.745410 -12.346369 0 CHG=1
M  V30 6 C 11.656209 9.609910 -5.327694 0
M  V30 7 C 11.046357 7.389256 -6.143924 0
M  V30 8 C 9.021833 5.677313 -9.807360 0
M  V30 9 C 11.834839 7.673807 -3.857461 0
M  V30 10 C 8.241316 3.222889 -12.929475 0
M  V30 11 S 12.234843 6.986780 -2.291669 0
M  V30 12 C 11.366250 6.839671 -4.887220 0
M  V30 13 N 8.550023 4.645725 -10.707585 0
M  V30 14 N 9.619326 6.169302 -1.491670 0
M  V30 15 C 11.188881 8.776146 -6.363300 0
M  V30 16 C 8.567700 5.368425 -8.373770 0
M  V30 17 C 10.567296 6.490962 -7.260122 0
M  V30 18 H 8.624169 6.169280 -6.378990 0
M  V30 19 H 8.634850 7.396335 -7.612848 0
M  V30 20 H 7.805722 6.040921 -13.978182 0
M  V30 21 H 6.817189 5.719119 -12.545946 0
M  V30 22 H 8.073829 6.961816 -12.494771 0
M  V30 23 H 12.342537 9.695044 -3.278572 0
M  V30 24 H 11.766760 10.670921 -5.496506 0
M  V30 25 H 8.634837 6.644164 -10.125886 0
M  V30 26 H 10.107018 5.726966 -9.868976 0
M  V30 27 H 8.234840 3.193493 -14.018809 0
M  V30 28 H 8.788068 2.352897 -12.564571 0
M  V30 29 H 7.211274 3.158422 -12.578582 0
M  V30 30 H 11.257167 5.778033 -4.716296 0
M  V30 31 H 7.552806 4.538938 -10.583728 0
M  V30 32 H 10.944498 9.198182 -7.326704 0
M  V30 33 H 8.928016 4.384831 -8.071316 0
M  V30 34 H 7.478794 5.320635 -8.344549 0
M  V30 35 H 10.992838 6.859187 -8.193398 0
M  V30 36 H 10.983428 5.493924 -7.112161 0
M  V30 END ATOM
M  V30 BEGIN BOND
M  V30 1 1 5 2
M  V30 2 1 6 3
M  V30 3 2 9 3
M  V30 4 1 10 5
M  V30 5 1 11 4
M  V30 6 1 11 9
M  V30 7 2 12 7
M  V30 8 1 12 9
M  V30 9 1 13 5
M  V30 10 1 13 8
M  V30 11 3 14 4
M  V30 12 2 15 6
M  V30 13 1 15 7
M  V30 14 1 16 1
M  V30 15 1 16 8
M  V30 16 1 17 1
M  V30 17 1 17 7
M  V30 18 1 18 1
M  V30 19 1 19 1
M  V30 20 1 20 2
M  V30 21 1 21 2
M  V30 22 1 22 2
M  V30 23 1 23 3
M  V30 24 1 24 6
M  V30 25 1 25 8
M  V30 26 1 26 8
M  V30 27 1 27 10
M  V30 28 1 28 10
M  V30 29 1 29 10
M  V30 30 1 30 12
M  V30 31 1 31 13
M  V30 32 1 32 15
M  V30 33 1 33 16
M  V30 34 1 34 16
M  V30 35 1 35 17
M  V30 36 1 36 17
M  V30 END BOND
M  V30 END CTAB
M  END
>  <i_epik_Tot_Q>  (1) 
1

>  <i_epik_Tot_abs_Q>  (1) 
1

>  <i_i_glide_confnum>  (1) 
26

>  <i_i_glide_lignum>  (1) 
128

>  <i_i_glide_posenum>  (1) 
383

>  <i_i_glide_rotatable_bonds>  (1) 
7

>  <i_lp_mmshare_version>  (1) 
72125

>  <i_m_source_file_index>  (1) 
66

>  <i_f3d_flags>  (1) 
0

>  <num_sample>  (1) 
100

>  <b_lp_Chiralities_Consistent>  (1) 
1

>  <r_epik_Charging_Adjusted_Penalty>  (1) 
0

>  <r_epik_Ionization_Penalty>  (1) 
2.8679702438893361e-14

>  <r_epik_Ionization_Penalty_Charging>  (1) 
0

>  <r_epik_Ionization_Penalty_Neutral>  (1) 
2.8679702438893361e-14

>  <r_epik_State_Penalty>  (1) 
-0

>  <r_glide_ring_energy>  (1) 
0

>  <r_i_docking_score>  (1) 
-3.6276385454766142

>  <r_i_glide_ecoul>  (1) 
-2.6397816299203165

>  <r_i_glide_eff_state_penalty>  (1) 
-0

>  <r_i_glide_einternal>  (1) 
3.3201220809709473

>  <r_i_glide_emodel>  (1) 
-37.6775790676014

>  <r_i_glide_emodel_strain>  (1) 
0.40741780066725042

>  <r_i_glide_energy>  (1) 
-30.504668521603133

>  <r_i_glide_erotb>  (1) 
2.9918565276510027

>  <r_i_glide_esite>  (1) 
0

>  <r_i_glide_evdw>  (1) 
-27.864886891682815

>  <r_i_glide_gscore>  (1) 
-3.6276385454766142

>  <r_i_glide_gscore_strain>  (1) 
0

>  <r_i_glide_hbond>  (1) 
0

>  <r_i_glide_ligand_efficiency>  (1) 
-0.21339050267509496

>  <r_i_glide_ligand_efficiency_ln>  (1) 
-0.94637011297626672

>  <r_i_glide_ligand_efficiency_sa>  (1) 
-0.54868707114977866

>  <r_i_glide_lipo>  (1) 
-2.3220286132798846

>  <r_i_glide_metal>  (1) 
-0

>  <r_i_glide_rewards>  (1) 
-2.5082548707755441

>  <r_lp_Energy>  (1) 
7.7387159999999993

>  <r_lp_tautomer_probability>  (1) 
1

>  <s_epik_cmdline>  (1) 
J2VwaWtfcHl0aG9uJywgJy1waHQnLCAnMS4wJywgJy1waCcsICc3LjQnLCAnLXRuJywgJzgnLCAnLW1hJywgJzUwMCcsICctaW1hZScsICc8aW5maWxlLm1hZT4nLCAnLW9tYWUnLCAnPG91dGZpbGUubWFlPic=

>  <s_epik_input>  (1) 
W0NIM11bUytdKFtDSDNdKVtOSF1bQ0gyXVtDSDJdW0NIMl1bQ0gyXWMxW2NIXWMoU0MjTilbY0hdW2NIXVtjSF0x

>  <s_glide_docking_method>  (1) 
confgen

>  <s_i_glide_gridfile>  (1) 
gpcr_drd2_6luq_protein_autoprepared_prepared

>  <s_lp_Force_Field>  (1) 
S-OPLS

>  <s_lp_Variant>  (1) 
DiffSBDD_65_num_sample_100-1

>  <s_m_source_file>  (1) 
generated__ligand_DiffSBDD_2026-05-06_prepared.sdf

>  <GenAI_Model>  (1) 
DiffSBDD

>  <Protein>  (1) 
generic_title2

$$$$
DiffSBDD_55_num_sample_100
     RDKit          3D

  0  0  0  0  0  0  0  0  0  0999 V3000
M  V30 BEGIN CTAB
M  V30 COUNTS 50 53 0 0 1
M  V30 BEGIN ATOM
M  V30 1 O 10.051634 6.650597 -9.457885 0
M  V30 2 C 6.908741 5.405658 -18.766418 0
M  V30 3 C 6.848058 4.571698 -12.267212 0
M  V30 4 C 5.835195 7.369294 -12.588876 0
M  V30 5 C 9.524811 5.450229 -11.915095 0 CFG=2
M  V30 6 C 8.821349 4.842632 -10.709271 0 CFG=1
M  V30 7 S 5.110365 7.369273 -18.277837 0
M  V30 8 C 6.222258 6.576542 -19.467392 0
M  V30 9 C 7.034797 5.812962 -17.309086 0
M  V30 10 C 9.429461 6.301615 -7.223026 0
M  V30 11 N 7.343141 5.470008 -13.300674 0
M  V30 12 C 9.434619 5.364034 -9.378156 0 CFG=2
M  V30 13 C 7.298081 5.008193 -10.864369 0 CFG=2
M  V30 14 C 8.619685 5.367076 -8.096137 0
M  V30 15 C 9.862722 7.355439 -8.234972 0
M  V30 16 C 5.081980 6.164847 -15.848525 0
M  V30 17 C 6.460221 6.556061 -13.743870 0 CFG=1
M  V30 18 C 6.030991 6.849746 -16.801966 0 CFG=2
M  V30 19 C 9.282617 6.887356 -12.291681 0
M  V30 20 O 7.899316 5.335140 -16.578047 0
M  V30 21 O 6.634802 4.169219 -9.970917 0
M  V30 22 C 5.276101 6.017314 -14.520412 0
M  V30 23 C 8.772642 5.776882 -13.196235 0 CFG=1
M  V30 24 H 6.294303 4.506774 -18.821581 0
M  V30 25 H 7.883431 5.185282 -19.201893 0
M  V30 26 H 7.226259 3.566440 -12.461959 0
M  V30 27 H 5.762016 4.490832 -12.315066 0
M  V30 28 H 5.053741 8.040686 -12.953787 0
M  V30 29 H 5.321860 6.742625 -11.860989 0
M  V30 30 H 6.559183 7.980314 -12.053840 0
M  V30 31 H 10.549744 5.108954 -12.037407 0
M  V30 32 H 9.020381 3.770301 -10.754385 0
M  V30 33 H 5.671057 6.255336 -20.350309 0
M  V30 34 H 6.966078 7.307377 -19.786491 0
M  V30 35 H 10.299928 5.783260 -6.818115 0
M  V30 36 H 8.854954 6.716905 -6.395180 0
M  V30 37 H 10.234827 4.671091 -9.151149 0
M  V30 38 H 7.010695 6.033819 -10.663324 0
M  V30 39 H 7.626135 5.769311 -8.259667 0
M  V30 40 H 8.507517 4.369062 -7.682696 0
M  V30 41 H 10.767007 7.883051 -7.932279 0
M  V30 42 H 9.070383 8.091796 -8.375096 0
M  V30 43 H 4.187763 5.769282 -16.292529 0
M  V30 44 H 7.027970 7.234636 -14.379457 0
M  V30 45 H 6.544873 7.698195 -16.353280 0
M  V30 46 H 10.145785 7.454222 -12.633182 0
M  V30 47 H 8.595775 7.445389 -11.664029 0
M  V30 48 H 6.098614 4.670909 -9.362635 0
M  V30 49 H 4.537834 5.487243 -13.941567 0
M  V30 50 H 9.280074 5.637617 -14.149076 0
M  V30 END ATOM
M  V30 BEGIN BOND
M  V30 1 1 6 5
M  V30 2 1 8 2
M  V30 3 1 8 7
M  V30 4 1 9 2
M  V30 5 1 11 3
M  V30 6 1 12 1
M  V30 7 1 12 6
M  V30 8 1 13 3
M  V30 9 1 13 6
M  V30 10 1 14 10
M  V30 11 1 14 12
M  V30 12 1 15 1
M  V30 13 1 15 10
M  V30 14 1 17 4
M  V30 15 1 17 11
M  V30 16 1 18 7
M  V30 17 1 18 9
M  V30 18 1 18 16
M  V30 19 1 19 5
M  V30 20 2 20 9
M  V30 21 1 21 13
M  V30 22 2 22 16
M  V30 23 1 22 17
M  V30 24 1 23 5
M  V30 25 1 23 11
M  V30 26 1 23 19
M  V30 27 1 24 2
M  V30 28 1 25 2
M  V30 29 1 26 3
M  V30 30 1 27 3
M  V30 31 1 28 4
M  V30 32 1 29 4
M  V30 33 1 30 4
M  V30 34 1 5 31 CFG=3
M  V30 35 1 6 32 CFG=3
M  V30 36 1 33 8
M  V30 37 1 34 8
M  V30 38 1 35 10
M  V30 39 1 36 10
M  V30 40 1 12 37 CFG=1
M  V30 41 1 13 38 CFG=1
M  V30 42 1 39 14
M  V30 43 1 40 14
M  V30 44 1 41 15
M  V30 45 1 42 15
M  V30 46 1 43 16
M  V30 47 1 17 44 CFG=3
M  V30 48 1 18 45 CFG=1
M  V30 49 1 46 19
M  V30 50 1 47 19
M  V30 51 1 48 21
M  V30 52 1 49 22
M  V30 53 1 23 50 CFG=3
M  V30 END BOND
M  V30 END CTAB
M  END
>  <i_epik_Tot_Q>  (1) 
0

>  <i_epik_Tot_abs_Q>  (1) 
0

>  <i_i_glide_confnum>  (1) 
64

>  <i_i_glide_lignum>  (1) 
111

>  <i_i_glide_posenum>  (1) 
170

>  <i_i_glide_rotatable_bonds>  (1) 
5

>  <i_lp_mmshare_version>  (1) 
72125

>  <i_m_source_file_index>  (1) 
56

>  <i_f3d_flags>  (1) 
0

>  <num_sample>  (1) 
100

>  <b_lp_Chiralities_Consistent>  (1) 
1

>  <r_epik_Charging_Adjusted_Penalty>  (1) 
1.1351003249830234

>  <r_epik_Ionization_Penalty>  (1) 
1.13510036387319

>  <r_epik_Ionization_Penalty_Charging>  (1) 
0

>  <r_epik_Ionization_Penalty_Neutral>  (1) 
1.13510036387319

>  <r_epik_State_Penalty>  (1) 
1.1351003249830234

>  <r_glide_ring_energy>  (1) 
0.48034924446919847

>  <r_i_docking_score>  (1) 
-3.6178184726976959

>  <r_i_glide_ecoul>  (1) 
-3.8461813351928655

>  <r_i_glide_eff_state_penalty>  (1) 
1.1351003249830234

>  <r_i_glide_einternal>  (1) 
15.810141620858118

>  <r_i_glide_emodel>  (1) 
-26.410096403634654

>  <r_i_glide_emodel_strain>  (1) 
2.7398430901598232

>  <r_i_glide_energy>  (1) 
-28.158888401537723

>  <r_i_glide_erotb>  (1) 
0.4978175189556282

>  <r_i_glide_esite>  (1) 
0

>  <r_i_glide_evdw>  (1) 
-24.312707066344856

>  <r_i_glide_gscore>  (1) 
-4.752918797680719

>  <r_i_glide_gscore_strain>  (1) 
0

>  <r_i_glide_hbond>  (1) 
-0.32000000000000001

>  <r_i_glide_ligand_efficiency>  (1) 
-0.15729645533468242

>  <r_i_glide_ligand_efficiency_ln>  (1) 
-0.87482131126251761

>  <r_i_glide_ligand_efficiency_sa>  (1) 
-0.44733019537399998

>  <r_i_glide_lipo>  (1) 
-1.4675274406672238

>  <r_i_glide_metal>  (1) 
-0

>  <r_i_glide_rewards>  (1) 
-1.6706463223729511

>  <r_lp_Energy>  (1) 
16.161977

>  <r_lp_tautomer_probability>  (1) 
0.99995000000000001

>  <s_epik_cmdline>  (1) 
J2VwaWtfcHl0aG9uJywgJy1waHQnLCAnMS4wJywgJy1waCcsICc3LjQnLCAnLXRuJywgJzgnLCAnLW1hJywgJzUwMCcsICctaW1hZScsICc8aW5maWxlLm1hZT4nLCAnLW9tYWUnLCAnPG91dGZpbGUubWFlPic=

>  <s_epik_input>  (1) 
W0NIMl0xW0NIMl1bQ0gyXU9bQ0BASF0xW0NASF0yW0NASF0oW09IXSlbQ0gyXU4oW0NASF0oW0NASF0yMylbQ0gyXTMpW0NASF0oW0NIM10pL1tDSF09W0NIXVxbQ0BASF00U1tDSDJdW0NIMl1DND1P

>  <s_glide_docking_method>  (1) 
confgen

>  <s_i_glide_gridfile>  (1) 
gpcr_drd2_6luq_protein_autoprepared_prepared

>  <s_lp_Force_Field>  (1) 
S-OPLS

>  <s_lp_Variant>  (1) 
DiffSBDD_55_num_sample_100-12

>  <s_m_source_file>  (1) 
generated__ligand_DiffSBDD_2026-05-06_prepared.sdf

>  <GenAI_Model>  (1) 
DiffSBDD

>  <Protein>  (1) 
generic_title2

$$$$
DiffSBDD_45_num_sample_100
     RDKit          3D

  0  0  0  0  0  0  0  0  0  0999 V3000
M  V30 BEGIN CTAB
M  V30 COUNTS 63 65 0 0 1
M  V30 BEGIN ATOM
M  V30 1 C 7.068837 5.741988 -14.316302 0
M  V30 2 C 14.294707 5.393582 -19.544724 0
M  V30 3 C 5.688804 6.400347 -14.469760 0
M  V30 4 C 17.355618 5.545972 -18.797583 0 CFG=1
M  V30 5 C 16.323588 6.678537 -19.050387 0 CFG=1
M  V30 6 C 16.923030 5.537754 -16.291851 0
M  V30 7 C 7.190008 5.003034 -19.475217 0
M  V30 8 C 7.355856 5.519674 -16.843941 0 CFG=2
M  V30 9 O 6.116602 4.721257 -20.012748 0
M  V30 10 N 14.915626 6.424388 -18.697628 0
M  V30 11 Cl 16.814107 8.225268 -18.291670 0
M  V30 12 C 10.375902 4.950260 -19.105960 0 CFG=1
M  V30 13 C 10.128816 7.305014 -20.211561 0
M  V30 14 C 5.434972 6.865109 -15.892159 0
M  V30 15 C 11.828576 5.360093 -18.735441 0
M  V30 16 N 17.834847 5.369382 -17.420324 0
M  V30 17 C 9.861946 4.160963 -17.884273 0
M  V30 18 C 12.809443 5.602479 -19.897975 0
M  V30 19 C 6.171185 6.476164 -16.945508 0
M  V30 20 C 14.681789 6.250792 -17.257726 0
M  V30 21 C 9.430288 6.143016 -19.457257 0 CFG=1
M  V30 22 C 7.465110 4.514737 -18.033160 0 CFG=2
M  V30 23 F 16.931834 4.369581 -19.257079 0
M  V30 24 O 8.565855 3.615406 -18.012311 0
M  V30 25 C 7.365397 4.785564 -15.481364 0
M  V30 26 C 15.472768 5.125031 -16.570975 0
M  V30 27 N 8.161473 5.715214 -20.117643 0
M  V30 28 C 7.963198 6.128997 -21.518231 0
M  V30 29 H 7.125946 5.212998 -13.364342 0
M  V30 30 H 7.836088 6.516498 -14.283673 0
M  V30 31 H 14.439801 4.402064 -19.116404 0
M  V30 32 H 14.818285 5.365093 -20.501272 0
M  V30 33 H 5.600354 7.247555 -13.788629 0
M  V30 34 H 4.909293 5.689172 -14.197980 0
M  V30 35 H 18.225571 5.760259 -19.419525 0
M  V30 36 H 16.354089 6.885677 -20.120886 0
M  V30 37 H 16.968560 6.569270 -15.950667 0
M  V30 38 H 17.304563 4.948355 -15.459264 0
M  V30 39 H 8.218463 6.169124 -16.816163 0
M  V30 40 H 10.413798 4.269002 -19.957084 0
M  V30 41 H 10.888921 7.781340 -19.592510 0
M  V30 42 H 10.606511 6.974519 -21.133366 0
M  V30 43 H 9.433868 8.102866 -20.468911 0
M  V30 44 H 4.610457 7.546442 -16.039970 0
M  V30 45 H 11.793643 6.232461 -18.083078 0
M  V30 46 H 12.271501 4.563514 -18.135997 0
M  V30 47 H 18.639844 5.971235 -17.273237 0
M  V30 48 H 9.945259 4.756566 -16.975557 0
M  V30 49 H 10.509821 3.299157 -17.719655 0
M  V30 50 H 12.566664 4.910035 -20.704455 0
M  V30 51 H 12.695499 6.600378 -20.316043 0
M  V30 52 H 5.932176 6.854453 -17.928370 0
M  V30 53 H 14.876854 7.189807 -16.742396 0
M  V30 54 H 13.629026 6.073926 -17.069741 0
M  V30 55 H 9.160833 6.639704 -18.535710 0
M  V30 56 H 6.634848 3.828267 -17.867347 0
M  V30 57 H 6.634589 3.978089 -15.480773 0
M  V30 58 H 8.331753 4.308037 -15.319386 0
M  V30 59 H 14.996425 4.937646 -15.607665 0
M  V30 60 H 15.414241 4.180278 -17.110789 0
M  V30 61 H 7.192781 5.552383 -22.031830 0
M  V30 62 H 7.666185 7.176285 -21.575570 0
M  V30 63 H 8.866224 5.982246 -22.109864 0
M  V30 END ATOM
M  V30 BEGIN BOND
M  V30 1 1 3 1
M  V30 2 1 5 4
M  V30 3 2 9 7
M  V30 4 1 10 2
M  V30 5 1 10 5
M  V30 6 1 11 5
M  V30 7 1 14 3
M  V30 8 1 15 12
M  V30 9 1 16 4
M  V30 10 1 16 6
M  V30 11 1 17 12
M  V30 12 1 18 2
M  V30 13 1 18 15
M  V30 14 1 19 8
M  V30 15 2 19 14
M  V30 16 1 20 10
M  V30 17 1 21 12
M  V30 18 1 21 13
M  V30 19 1 22 7
M  V30 20 1 22 8
M  V30 21 1 23 4
M  V30 22 1 24 17
M  V30 23 1 24 22
M  V30 24 1 25 1
M  V30 25 1 25 8
M  V30 26 1 26 6
M  V30 27 1 26 20
M  V30 28 1 27 7
M  V30 29 1 27 21
M  V30 30 1 28 27
M  V30 31 1 29 1
M  V30 32 1 30 1
M  V30 33 1 31 2
M  V30 34 1 32 2
M  V30 35 1 33 3
M  V30 36 1 34 3
M  V30 37 1 4 35 CFG=3
M  V30 38 1 5 36 CFG=3
M  V30 39 1 37 6
M  V30 40 1 38 6
M  V30 41 1 8 39 CFG=1
M  V30 42 1 12 40 CFG=3
M  V30 43 1 41 13
M  V30 44 1 42 13
M  V30 45 1 43 13
M  V30 46 1 44 14
M  V30 47 1 45 15
M  V30 48 1 46 15
M  V30 49 1 47 16
M  V30 50 1 48 17
M  V30 51 1 49 17
M  V30 52 1 50 18
M  V30 53 1 51 18
M  V30 54 1 52 19
M  V30 55 1 53 20
M  V30 56 1 54 20
M  V30 57 1 21 55 CFG=1
M  V30 58 1 22 56 CFG=1
M  V30 59 1 57 25
M  V30 60 1 58 25
M  V30 61 1 59 26
M  V30 62 1 60 26
M  V30 63 1 61 28
M  V30 64 1 62 28
M  V30 65 1 63 28
M  V30 END BOND
M  V30 END CTAB
M  END
>  <i_epik_Tot_Q>  (1) 
0

>  <i_epik_Tot_abs_Q>  (1) 
0

>  <i_i_glide_confnum>  (1) 
101

>  <i_i_glide_lignum>  (1) 
84

>  <i_i_glide_posenum>  (1) 
311

>  <i_i_glide_rotatable_bonds>  (1) 
5

>  <i_lp_mmshare_version>  (1) 
72125

>  <i_m_source_file_index>  (1) 
46

>  <i_f3d_flags>  (1) 
0

>  <num_sample>  (1) 
100

>  <b_lp_Chiralities_Consistent>  (1) 
1

>  <r_epik_Charging_Adjusted_Penalty>  (1) 
0.015133208647659156

>  <r_epik_Ionization_Penalty>  (1) 
0.015206278080010002

>  <r_epik_Ionization_Penalty_Charging>  (1) 
0

>  <r_epik_Ionization_Penalty_Neutral>  (1) 
0.015206278080010002

>  <r_epik_State_Penalty>  (1) 
0.015133208647659156

>  <r_glide_ring_energy>  (1) 
0.14460873125521928

>  <r_i_docking_score>  (1) 
-3.608114228771929

>  <r_i_glide_ecoul>  (1) 
-2.4070780765297939

>  <r_i_glide_eff_state_penalty>  (1) 
0.015133208647659156

>  <r_i_glide_einternal>  (1) 
3.8687647472794779

>  <r_i_glide_emodel>  (1) 
-26.143917602404684

>  <r_i_glide_emodel_strain>  (1) 
0

>  <r_i_glide_energy>  (1) 
-23.410005839721276

>  <r_i_glide_erotb>  (1) 
0.45657733151366331

>  <r_i_glide_esite>  (1) 
-0.0068521087903509808

>  <r_i_glide_evdw>  (1) 
-21.002927763191483

>  <r_i_glide_gscore>  (1) 
-3.6232474374195882

>  <r_i_glide_gscore_strain>  (1) 
0

>  <r_i_glide_hbond>  (1) 
-0.12814154015116627

>  <r_i_glide_ligand_efficiency>  (1) 
-0.12886122245614032

>  <r_i_glide_ligand_efficiency_ln>  (1) 
-0.83285870283764807

>  <r_i_glide_ligand_efficiency_sa>  (1) 
-0.39129856701273225

>  <r_i_glide_lipo>  (1) 
-1.69602293685797

>  <r_i_glide_metal>  (1) 
-0

>  <r_i_glide_rewards>  (1) 
-0.83760008349472148

>  <r_lp_Energy>  (1) 
27.293519

>  <s_epik_cmdline>  (1) 
J2VwaWtfcHl0aG9uJywgJy1waHQnLCAnMS4wJywgJy1waCcsICc3LjQnLCAnLXRuJywgJzgnLCAnLW1hJywgJzUwMCcsICctaW1hZScsICc8aW5maWxlLm1hZT4nLCAnLW9tYWUnLCAnPG91dGZpbGUubWFlPic=

>  <s_epik_input>  (1) 
W0NIMl0xW0NIMl1bQ0gyXVtDSF09W0NIXVtDQEhdMVtDQEBIXShDMj1PKU9bQ0gyXVtDQEBIXShbQ0BASF0oW0NIM10pTjJbQ0gzXSlbQ0gyXVtDSDJdW0NIMl1OKFtDQEBIXShDbClbQ0BASF0zRilbQ0gyXVtDSDJdW0NIMl1bTkhdMw==

>  <s_glide_docking_method>  (1) 
confgen

>  <s_i_glide_gridfile>  (1) 
gpcr_drd2_6luq_protein_autoprepared_prepared

>  <s_lp_Force_Field>  (1) 
S-OPLS

>  <s_lp_Variant>  (1) 
DiffSBDD_45_num_sample_100-3

>  <s_m_source_file>  (1) 
generated__ligand_DiffSBDD_2026-05-06_prepared.sdf

>  <GenAI_Model>  (1) 
DiffSBDD

>  <Protein>  (1) 
generic_title2

$$$$
DiffSBDD_55_num_sample_100
     RDKit          3D

  0  0  0  0  0  0  0  0  0  0999 V3000
M  V30 BEGIN CTAB
M  V30 COUNTS 50 53 0 0 1
M  V30 BEGIN ATOM
M  V30 1 O 9.506812 6.288708 -11.210868 0
M  V30 2 C 6.054865 4.705551 -20.608639 0
M  V30 3 C 5.834744 5.210930 -13.383962 0
M  V30 4 C 6.634303 7.570301 -15.068564 0
M  V30 5 C 8.463329 4.140825 -13.159084 0 CFG=2
M  V30 6 C 7.794648 4.630518 -11.874563 0 CFG=1
M  V30 7 S 5.528224 7.324112 -20.150905 0
M  V30 8 C 5.062328 5.799116 -21.018120 0
M  V30 9 C 6.546008 5.077914 -19.217478 0
M  V30 10 C 9.563386 6.112876 -8.850707 0
M  V30 11 N 6.583884 5.096100 -14.635764 0
M  V30 12 C 8.882944 5.057861 -10.851792 0 CFG=2
M  V30 13 C 6.693226 5.677498 -12.188156 0 CFG=2
M  V30 14 C 8.470999 5.213193 -9.383941 0
M  V30 15 C 9.835027 7.033926 -10.040458 0
M  V30 16 C 4.974415 6.224805 -17.689804 0
M  V30 17 C 6.479570 6.163693 -15.644649 0 CFG=1
M  V30 18 C 6.101313 6.433360 -18.683705 0 CFG=2
M  V30 19 C 9.104759 5.121710 -14.108041 0
M  V30 20 O 7.261329 4.324449 -18.560156 0
M  V30 21 O 5.816517 5.826331 -11.091748 0
M  V30 22 C 5.139391 6.108602 -16.358864 0
M  V30 23 C 7.857338 4.388823 -14.533514 0 CFG=1
M  V30 24 H 5.595815 3.717182 -20.613880 0
M  V30 25 H 6.909993 4.687219 -21.283657 0
M  V30 26 H 5.404423 4.237160 -13.145455 0
M  V30 27 H 4.987000 5.879622 -13.515874 0
M  V30 28 H 6.569191 8.326839 -15.851343 0
M  V30 29 H 5.845643 7.769365 -14.345221 0
M  V30 30 H 7.586460 7.704063 -14.561474 0
M  V30 31 H 9.002042 3.203083 -13.034122 0
M  V30 32 H 7.279872 3.768942 -11.460328 0
M  V30 33 H 4.055867 5.509551 -20.716095 0
M  V30 34 H 5.052383 5.957669 -22.096809 0
M  V30 35 H 10.450035 5.524900 -8.614848 0
M  V30 36 H 9.265187 6.657036 -7.954061 0
M  V30 37 H 9.673607 4.305076 -10.865077 0
M  V30 38 H 7.135940 6.649851 -12.403405 0
M  V30 39 H 7.517136 5.720786 -9.273680 0
M  V30 40 H 8.401502 4.265027 -8.849341 0
M  V30 41 H 10.865996 7.388288 -10.067441 0
M  V30 42 H 9.184931 7.908190 -10.002337 0
M  V30 43 H 3.978360 6.169479 -18.102601 0
M  V30 44 H 7.269362 6.009129 -16.378276 0
M  V30 45 H 6.937353 6.967880 -18.233806 0
M  V30 46 H 10.043275 4.830623 -14.573758 0
M  V30 47 H 9.033938 6.169290 -13.838841 0
M  V30 48 H 6.224805 6.418973 -10.461921 0
M  V30 49 H 4.275964 5.965070 -15.739477 0
M  V30 50 H 7.964543 3.627977 -15.304389 0
M  V30 END ATOM
M  V30 BEGIN BOND
M  V30 1 1 6 5
M  V30 2 1 8 2
M  V30 3 1 8 7
M  V30 4 1 9 2
M  V30 5 1 11 3
M  V30 6 1 12 1
M  V30 7 1 12 6
M  V30 8 1 13 3
M  V30 9 1 13 6
M  V30 10 1 14 10
M  V30 11 1 14 12
M  V30 12 1 15 1
M  V30 13 1 15 10
M  V30 14 1 17 4
M  V30 15 1 17 11
M  V30 16 1 18 7
M  V30 17 1 18 9
M  V30 18 1 18 16
M  V30 19 1 19 5
M  V30 20 2 20 9
M  V30 21 1 21 13
M  V30 22 2 22 16
M  V30 23 1 22 17
M  V30 24 1 23 5
M  V30 25 1 23 11
M  V30 26 1 23 19
M  V30 27 1 24 2
M  V30 28 1 25 2
M  V30 29 1 26 3
M  V30 30 1 27 3
M  V30 31 1 28 4
M  V30 32 1 29 4
M  V30 33 1 30 4
M  V30 34 1 5 31 CFG=1
M  V30 35 1 6 32 CFG=1
M  V30 36 1 33 8
M  V30 37 1 34 8
M  V30 38 1 35 10
M  V30 39 1 36 10
M  V30 40 1 12 37 CFG=1
M  V30 41 1 13 38 CFG=3
M  V30 42 1 39 14
M  V30 43 1 40 14
M  V30 44 1 41 15
M  V30 45 1 42 15
M  V30 46 1 43 16
M  V30 47 1 17 44 CFG=3
M  V30 48 1 18 45 CFG=1
M  V30 49 1 46 19
M  V30 50 1 47 19
M  V30 51 1 48 21
M  V30 52 1 49 22
M  V30 53 1 23 50 CFG=3
M  V30 END BOND
M  V30 END CTAB
M  END
>  <i_epik_Tot_Q>  (1) 
0

>  <i_epik_Tot_abs_Q>  (1) 
0

>  <i_i_glide_confnum>  (1) 
29

>  <i_i_glide_lignum>  (1) 
111

>  <i_i_glide_posenum>  (1) 
298

>  <i_i_glide_rotatable_bonds>  (1) 
5

>  <i_lp_mmshare_version>  (1) 
72125

>  <i_m_source_file_index>  (1) 
56

>  <i_f3d_flags>  (1) 
0

>  <num_sample>  (1) 
100

>  <b_lp_Chiralities_Consistent>  (1) 
1

>  <r_epik_Charging_Adjusted_Penalty>  (1) 
1.1351003249830234

>  <r_epik_Ionization_Penalty>  (1) 
1.13510036387319

>  <r_epik_Ionization_Penalty_Charging>  (1) 
0

>  <r_epik_Ionization_Penalty_Neutral>  (1) 
1.13510036387319

>  <r_epik_State_Penalty>  (1) 
1.1351003249830234

>  <r_glide_ring_energy>  (1) 
0.36602117891308106

>  <r_i_docking_score>  (1) 
-3.6077098054528784

>  <r_i_glide_ecoul>  (1) 
-2.1455060419260996

>  <r_i_glide_eff_state_penalty>  (1) 
1.1351003249830234

>  <r_i_glide_einternal>  (1) 
13.257300247845698

>  <r_i_glide_emodel>  (1) 
-33.53371039985673

>  <r_i_glide_emodel_strain>  (1) 
0.24293301139326218

>  <r_i_glide_energy>  (1) 
-31.528092203174555

>  <r_i_glide_erotb>  (1) 
0.4978175189556282

>  <r_i_glide_esite>  (1) 
0

>  <r_i_glide_evdw>  (1) 
-29.382586161248454

>  <r_i_glide_gscore>  (1) 
-4.7428101304359016

>  <r_i_glide_gscore_strain>  (1) 
0

>  <r_i_glide_hbond>  (1) 
-0.16

>  <r_i_glide_ligand_efficiency>  (1) 
-0.15685694806316863

>  <r_i_glide_ligand_efficiency_ln>  (1) 
-0.87237694386239384

>  <r_i_glide_ligand_efficiency_sa>  (1) 
-0.44608029515713726

>  <r_i_glide_lipo>  (1) 
-1.6755687322780597

>  <r_i_glide_metal>  (1) 
-0

>  <r_i_glide_rewards>  (1) 
-1.6141037027621323

>  <r_lp_Energy>  (1) 
16.161977

>  <r_lp_tautomer_probability>  (1) 
0.99995000000000001

>  <s_epik_cmdline>  (1) 
J2VwaWtfcHl0aG9uJywgJy1waHQnLCAnMS4wJywgJy1waCcsICc3LjQnLCAnLXRuJywgJzgnLCAnLW1hJywgJzUwMCcsICctaW1hZScsICc8aW5maWxlLm1hZT4nLCAnLW9tYWUnLCAnPG91dGZpbGUubWFlPic=

>  <s_epik_input>  (1) 
W0NIMl0xW0NIMl1bQ0gyXU9bQ0BASF0xW0NASF0yW0NASF0oW09IXSlbQ0gyXU4oW0NASF0oW0NASF0yMylbQ0gyXTMpW0NASF0oW0NIM10pL1tDSF09W0NIXVxbQ0BASF00U1tDSDJdW0NIMl1DND1P

>  <s_glide_docking_method>  (1) 
confgen

>  <s_i_glide_gridfile>  (1) 
gpcr_drd2_6luq_protein_autoprepared_prepared

>  <s_lp_Force_Field>  (1) 
S-OPLS

>  <s_lp_Variant>  (1) 
DiffSBDD_55_num_sample_100-12

>  <s_m_source_file>  (1) 
generated__ligand_DiffSBDD_2026-05-06_prepared.sdf

>  <GenAI_Model>  (1) 
DiffSBDD

>  <Protein>  (1) 
generic_title2

$$$$
DiffSBDD_45_num_sample_100
     RDKit          3D

  0  0  0  0  0  0  0  0  0  0999 V3000
M  V30 BEGIN CTAB
M  V30 COUNTS 63 65 0 0 1
M  V30 BEGIN ATOM
M  V30 1 C 19.761443 10.539151 -18.449938 0
M  V30 2 C 13.596193 2.595440 -19.427461 0
M  V30 3 C 21.098620 9.790059 -18.501433 0
M  V30 4 C 14.376395 -0.579465 -19.374803 0 CFG=1
M  V30 5 C 13.269800 0.259778 -20.064462 0 CFG=1
M  V30 6 C 16.513335 -0.105372 -20.633575 0
M  V30 7 C 15.992567 7.834367 -18.398827 0
M  V30 8 C 18.432354 8.452907 -19.105819 0 CFG=1
M  V30 9 O 15.682006 8.985808 -18.708212 0
M  V30 10 N 13.604336 1.613502 -20.522058 0
M  V30 11 Cl 12.611205 -0.597476 -21.491666 0
M  V30 12 C 15.956385 4.688363 -18.687514 0 CFG=1
M  V30 13 C 16.143430 5.384711 -16.170898 0
M  V30 14 C 20.970027 8.462606 -19.221249 0
M  V30 15 C 15.064289 4.708370 -19.956595 0
M  V30 16 N 15.426436 -1.030699 -20.291667 0
M  V30 17 C 17.402379 5.014133 -19.069112 0
M  V30 18 C 13.656314 4.085274 -19.829427 0
M  V30 19 C 19.793721 7.869279 -19.491661 0
M  V30 20 C 14.769396 1.657728 -21.414157 0
M  V30 21 C 15.412281 5.552832 -17.520439 0 CFG=1
M  V30 22 C 17.453684 7.345997 -18.612341 0 CFG=2
M  V30 23 F 14.913099 0.027940 -18.314676 0
M  V30 24 O 17.483649 6.321725 -19.596752 0
M  V30 25 C 18.612699 9.595528 -18.073300 0
M  V30 26 C 16.125266 1.378518 -20.741333 0
M  V30 27 N 15.090871 6.960102 -17.863223 0
M  V30 28 C 13.706678 7.385569 -17.617909 0
M  V30 29 H 19.555727 10.969302 -19.429328 0
M  V30 30 H 19.826348 11.369311 -17.746073 0
M  V30 31 H 14.351725 2.359053 -18.683137 0
M  V30 32 H 12.652821 2.474669 -18.893444 0
M  V30 33 H 21.456466 9.598261 -17.491668 0
M  V30 34 H 21.851781 10.402253 -18.997742 0
M  V30 35 H 13.890394 -1.464751 -18.965259 0
M  V30 36 H 12.430830 0.326417 -19.370901 0
M  V30 37 H 16.948662 -0.423066 -21.580383 0
M  V30 38 H 17.311611 -0.197118 -19.896030 0
M  V30 39 H 18.029527 8.879468 -20.025929 0
M  V30 40 H 15.988447 3.664753 -18.321147 0
M  V30 41 H 16.183042 4.331652 -15.891667 0
M  V30 42 H 17.165476 5.752114 -16.158537 0
M  V30 43 H 15.603102 5.899248 -15.375696 0
M  V30 44 H 21.890815 7.984481 -19.522719 0
M  V30 45 H 14.949250 5.736880 -20.299099 0
M  V30 46 H 15.600759 4.219687 -20.765659 0
M  V30 47 H 15.835634 -1.882820 -19.904794 0
M  V30 48 H 17.742190 4.321314 -19.839589 0
M  V30 49 H 18.088514 4.878854 -18.232664 0
M  V30 50 H 13.095483 4.660164 -19.092923 0
M  V30 51 H 13.112269 4.226596 -20.763941 0
M  V30 52 H 19.786021 6.923212 -20.012613 0
M  V30 53 H 14.636934 0.964197 -22.244516 0
M  V30 54 H 14.799764 2.632290 -21.896811 0
M  V30 55 H 14.450068 5.085337 -17.311420 0
M  V30 56 H 17.868293 7.006001 -17.667745 0
M  V30 57 H 17.697171 10.169308 -17.964111 0
M  V30 58 H 18.809068 9.171837 -17.091667 0
M  V30 59 H 16.903711 1.877085 -21.319381 0
M  V30 60 H 16.178442 1.838210 -19.757666 0
M  V30 61 H 13.638066 8.440967 -17.347989 0
M  V30 62 H 13.102417 7.228493 -18.511798 0
M  V30 63 H 13.248897 6.833070 -16.796739 0
M  V30 END ATOM
M  V30 BEGIN BOND
M  V30 1 1 3 1
M  V30 2 1 5 4
M  V30 3 2 9 7
M  V30 4 1 10 2
M  V30 5 1 10 5
M  V30 6 1 11 5
M  V30 7 1 14 3
M  V30 8 1 15 12
M  V30 9 1 16 4
M  V30 10 1 16 6
M  V30 11 1 17 12
M  V30 12 1 18 2
M  V30 13 1 18 15
M  V30 14 1 19 8
M  V30 15 2 19 14
M  V30 16 1 20 10
M  V30 17 1 21 12
M  V30 18 1 21 13
M  V30 19 1 22 7
M  V30 20 1 22 8
M  V30 21 1 23 4
M  V30 22 1 24 17
M  V30 23 1 24 22
M  V30 24 1 25 1
M  V30 25 1 25 8
M  V30 26 1 26 6
M  V30 27 1 26 20
M  V30 28 1 27 7
M  V30 29 1 27 21
M  V30 30 1 28 27
M  V30 31 1 29 1
M  V30 32 1 30 1
M  V30 33 1 31 2
M  V30 34 1 32 2
M  V30 35 1 33 3
M  V30 36 1 34 3
M  V30 37 1 4 35 CFG=1
M  V30 38 1 5 36 CFG=1
M  V30 39 1 37 6
M  V30 40 1 38 6
M  V30 41 1 8 39 CFG=3
M  V30 42 1 12 40 CFG=1
M  V30 43 1 41 13
M  V30 44 1 42 13
M  V30 45 1 43 13
M  V30 46 1 44 14
M  V30 47 1 45 15
M  V30 48 1 46 15
M  V30 49 1 47 16
M  V30 50 1 48 17
M  V30 51 1 49 17
M  V30 52 1 50 18
M  V30 53 1 51 18
M  V30 54 1 52 19
M  V30 55 1 53 20
M  V30 56 1 54 20
M  V30 57 1 21 55 CFG=1
M  V30 58 1 22 56 CFG=1
M  V30 59 1 57 25
M  V30 60 1 58 25
M  V30 61 1 59 26
M  V30 62 1 60 26
M  V30 63 1 61 28
M  V30 64 1 62 28
M  V30 65 1 63 28
M  V30 END BOND
M  V30 END CTAB
M  END
>  <i_epik_Tot_Q>  (1) 
0

>  <i_epik_Tot_abs_Q>  (1) 
0

>  <i_i_glide_confnum>  (1) 
147

>  <i_i_glide_lignum>  (1) 
82

>  <i_i_glide_posenum>  (1) 
58

>  <i_i_glide_rotatable_bonds>  (1) 
5

>  <i_lp_mmshare_version>  (1) 
72125

>  <i_m_source_file_index>  (1) 
46

>  <i_f3d_flags>  (1) 
0

>  <num_sample>  (1) 
100

>  <b_lp_Chiralities_Consistent>  (1) 
1

>  <r_epik_Charging_Adjusted_Penalty>  (1) 
0.015133208647659156

>  <r_epik_Ionization_Penalty>  (1) 
0.015206278080010002

>  <r_epik_Ionization_Penalty_Charging>  (1) 
0

>  <r_epik_Ionization_Penalty_Neutral>  (1) 
0.015206278080010002

>  <r_epik_State_Penalty>  (1) 
0.015133208647659156

>  <r_glide_ring_energy>  (1) 
0.93438330479392218

>  <r_i_docking_score>  (1) 
-3.6066667642184109

>  <r_i_glide_ecoul>  (1) 
-2.1776182409607574

>  <r_i_glide_eff_state_penalty>  (1) 
0.015133208647659156

>  <r_i_glide_einternal>  (1) 
4.1481418652924837

>  <r_i_glide_emodel>  (1) 
-27.333301479762419

>  <r_i_glide_emodel_strain>  (1) 
0.0051360064892946866

>  <r_i_glide_energy>  (1) 
-24.935547657600416

>  <r_i_glide_erotb>  (1) 
0.45657733151366331

>  <r_i_glide_esite>  (1) 
0

>  <r_i_glide_evdw>  (1) 
-22.757929416639659

>  <r_i_glide_gscore>  (1) 
-3.6217999728660701

>  <r_i_glide_gscore_strain>  (1) 
0

>  <r_i_glide_hbond>  (1) 
-0.32000000000000001

>  <r_i_glide_ligand_efficiency>  (1) 
-0.12880952729351466

>  <r_i_glide_ligand_efficiency_ln>  (1) 
-0.83252458551929009

>  <r_i_glide_ligand_efficiency_sa>  (1) 
-0.39114159005200388

>  <r_i_glide_lipo>  (1) 
-1.3922469621271252

>  <r_i_glide_metal>  (1) 
-0

>  <r_i_glide_rewards>  (1) 
-0.90159113527651225

>  <r_lp_Energy>  (1) 
30.384622

>  <s_epik_cmdline>  (1) 
J2VwaWtfcHl0aG9uJywgJy1waHQnLCAnMS4wJywgJy1waCcsICc3LjQnLCAnLXRuJywgJzgnLCAnLW1hJywgJzUwMCcsICctaW1hZScsICc8aW5maWxlLm1hZT4nLCAnLW9tYWUnLCAnPG91dGZpbGUubWFlPic=

>  <s_epik_input>  (1) 
W0NIMl0xW0NIMl1bQ0gyXVtDSF09W0NIXVtDQEhdMVtDQEBIXShDMj1PKU9bQ0gyXVtDQEBIXShbQ0BASF0oW0NIM10pTjJbQ0gzXSlbQ0gyXVtDSDJdW0NIMl1OKFtDQEBIXShDbClbQ0BASF0zRilbQ0gyXVtDSDJdW0NIMl1bTkhdMw==

>  <s_glide_docking_method>  (1) 
confgen

>  <s_i_glide_gridfile>  (1) 
gpcr_drd2_6luq_protein_autoprepared_prepared

>  <s_lp_Force_Field>  (1) 
S-OPLS

>  <s_lp_Variant>  (1) 
DiffSBDD_45_num_sample_100-1

>  <s_m_source_file>  (1) 
generated__ligand_DiffSBDD_2026-05-06_prepared.sdf

>  <GenAI_Model>  (1) 
DiffSBDD

>  <Protein>  (1) 
generic_title2

$$$$
DiffSBDD_80_num_sample_100
     RDKit          3D

  0  0  0  0  0  0  0  0  0  0999 V3000
M  V30 BEGIN CTAB
M  V30 COUNTS 57 60 0 0 1
M  V30 BEGIN ATOM
M  V30 1 C 4.691963 -1.456057 -17.133174 0
M  V30 2 C 8.051816 1.257843 -18.603874 0
M  V30 3 O 7.842677 -3.879445 -19.783720 0
M  V30 4 C 6.380434 3.738253 -21.147008 0
M  V30 5 C 7.333517 -3.889977 -18.664762 0
M  V30 6 C 7.262603 3.691709 -18.407805 0
M  V30 7 C 5.981970 -3.225322 -18.398754 0
M  V30 8 C 8.022564 -4.565960 -17.487729 0
M  V30 9 C 8.176302 -0.022501 -16.629741 0
M  V30 10 C 6.847644 -0.787906 -18.504580 0 CFG=2
M  V30 11 C 7.014823 5.009352 -19.114972 0 CFG=1
M  V30 12 O 3.557817 9.370923 -21.430312 0 CHG=-1
M  V30 13 C 5.779590 6.089977 -20.936856 0
M  V30 14 C 5.981971 -0.277998 -19.665101 0
M  V30 15 C 6.374994 4.894279 -20.463357 0
M  V30 16 C 4.659543 7.608061 -22.630272 0
M  V30 17 C 6.907104 2.496305 -20.570913 0
M  V30 18 F 3.399608 7.338197 -22.975553 0
M  V30 19 C 7.343843 2.458912 -19.256387 0
M  V30 20 C 4.686922 -0.378878 -16.041228 0
M  V30 21 C 5.305484 6.288847 -22.180969 0
M  V30 22 C 5.704032 7.088558 -19.953952 0
M  V30 23 C 6.090133 -1.870816 -17.654605 0 CFG=1
M  V30 24 O 7.434832 3.681299 -17.189185 0
M  V30 25 S 6.279183 6.568968 -18.346473 0
M  V30 26 N 7.287873 0.377831 -17.724461 0
M  V30 27 F 5.267352 8.023609 -23.742328 0
M  V30 28 C 6.958865 1.304216 -21.421448 0
M  V30 29 C 6.630657 0.056180 -21.008251 0
M  V30 30 C 5.222663 8.327261 -20.199571 0
M  V30 31 C 4.729690 8.802502 -21.577189 0 CFG=2
M  V30 32 H 4.036068 -1.156546 -17.949275 0
M  V30 33 H 4.234828 -2.341781 -16.695922 0
M  V30 34 H 8.589748 0.684508 -19.359634 0
M  V30 35 H 8.871972 1.708298 -18.041143 0
M  V30 36 H 5.929319 3.698199 -22.125869 0
M  V30 37 H 5.454923 -3.109864 -19.344718 0
M  V30 38 H 5.391026 -3.924159 -17.805861 0
M  V30 39 H 8.635230 -3.843206 -16.949911 0
M  V30 40 H 8.662085 -5.376668 -17.834552 0
M  V30 41 H 7.285744 -4.972656 -16.795977 0
M  V30 42 H 7.646356 -0.559852 -15.845430 0
M  V30 43 H 8.600810 0.853295 -16.136600 0
M  V30 44 H 8.997200 -0.647746 -16.983423 0
M  V30 45 H 7.739174 -1.258266 -18.921144 0
M  V30 46 H 8.030022 5.328725 -19.352224 0
M  V30 47 H 5.249291 -1.037434 -19.931886 0
M  V30 48 H 5.358684 0.555334 -19.335070 0
M  V30 49 H 3.681895 -0.228451 -15.648527 0
M  V30 50 H 5.034757 0.577971 -16.423037 0
M  V30 51 H 5.326615 -0.661204 -15.204905 0
M  V30 52 H 5.367680 5.508291 -22.920931 0
M  V30 53 H 6.668368 -2.110465 -16.769763 0
M  V30 54 H 7.292682 1.426326 -22.441203 0
M  V30 55 H 6.723544 -0.765932 -21.703009 0
M  V30 56 H 5.183899 9.049968 -19.400062 0
M  V30 57 H 5.581776 9.407043 -21.891681 0
M  V30 END ATOM
M  V30 BEGIN BOND
M  V30 1 2 5 3
M  V30 2 1 7 5
M  V30 3 1 8 5
M  V30 4 1 11 6
M  V30 5 1 14 10
M  V30 6 2 15 4
M  V30 7 1 15 11
M  V30 8 1 15 13
M  V30 9 1 17 4
M  V30 10 1 18 16
M  V30 11 1 19 2
M  V30 12 1 19 6
M  V30 13 2 19 17
M  V30 14 1 20 1
M  V30 15 2 21 13
M  V30 16 1 21 16
M  V30 17 1 22 13
M  V30 18 1 23 1
M  V30 19 1 23 7
M  V30 20 1 23 10
M  V30 21 2 24 6
M  V30 22 1 25 11
M  V30 23 1 25 22
M  V30 24 1 26 2
M  V30 25 1 26 9
M  V30 26 1 26 10
M  V30 27 1 27 16
M  V30 28 1 28 17
M  V30 29 1 29 14
M  V30 30 2 29 28
M  V30 31 2 30 22
M  V30 32 1 31 12
M  V30 33 1 31 16
M  V30 34 1 31 30
M  V30 35 1 32 1
M  V30 36 1 33 1
M  V30 37 1 34 2
M  V30 38 1 35 2
M  V30 39 1 36 4
M  V30 40 1 37 7
M  V30 41 1 38 7
M  V30 42 1 39 8
M  V30 43 1 40 8
M  V30 44 1 41 8
M  V30 45 1 42 9
M  V30 46 1 43 9
M  V30 47 1 44 9
M  V30 48 1 10 45 CFG=3
M  V30 49 1 11 46 CFG=3
M  V30 50 1 47 14
M  V30 51 1 48 14
M  V30 52 1 49 20
M  V30 53 1 50 20
M  V30 54 1 51 20
M  V30 55 1 52 21
M  V30 56 1 23 53 CFG=1
M  V30 57 1 54 28
M  V30 58 1 55 29
M  V30 59 1 56 30
M  V30 60 1 31 57 CFG=3
M  V30 END BOND
M  V30 END CTAB
M  END
>  <i_epik_Tot_Q>  (1) 
-1

>  <i_epik_Tot_abs_Q>  (1) 
1

>  <i_i_glide_confnum>  (1) 
4

>  <i_i_glide_lignum>  (1) 
164

>  <i_i_glide_posenum>  (1) 
12

>  <i_i_glide_rotatable_bonds>  (1) 
4

>  <i_lp_mmshare_version>  (1) 
72125

>  <i_m_source_file_index>  (1) 
81

>  <i_f3d_flags>  (1) 
0

>  <num_sample>  (1) 
100

>  <b_lp_Chiralities_Consistent>  (1) 
1

>  <r_epik_Charging_Adjusted_Penalty>  (1) 
8.7803366933407872e-06

>  <r_epik_Ionization_Penalty>  (1) 
0.00048743314384941063

>  <r_epik_Ionization_Penalty_Charging>  (1) 
8.7803366933407872e-06

>  <r_epik_Ionization_Penalty_Neutral>  (1) 
0.00047865280715606983

>  <r_epik_State_Penalty>  (1) 
-0

>  <r_glide_ring_energy>  (1) 
0

>  <r_i_docking_score>  (1) 
-3.6028852200193966

>  <r_i_glide_ecoul>  (1) 
-2.5625373065586361

>  <r_i_glide_eff_state_penalty>  (1) 
-0

>  <r_i_glide_einternal>  (1) 
3.8037756094985475

>  <r_i_glide_emodel>  (1) 
-35.211382943432682

>  <r_i_glide_emodel_strain>  (1) 
0

>  <r_i_glide_energy>  (1) 
-32.975332173133559

>  <r_i_glide_erotb>  (1) 
0.20077648214602295

>  <r_i_glide_esite>  (1) 
-0.011400168210302535

>  <r_i_glide_evdw>  (1) 
-30.41279486657492

>  <r_i_glide_gscore>  (1) 
-3.6028852200193966

>  <r_i_glide_gscore_strain>  (1) 
0

>  <r_i_glide_hbond>  (1) 
0

>  <r_i_glide_ligand_efficiency>  (1) 
-0.11622210387159344

>  <r_i_glide_ligand_efficiency_ln>  (1) 
-0.81256103228600696

>  <r_i_glide_ligand_efficiency_sa>  (1) 
-0.36509786848244652

>  <r_i_glide_lipo>  (1) 
-1.3941878486646779

>  <r_i_glide_metal>  (1) 
-0

>  <r_i_glide_rewards>  (1) 
-0.49305334597789763

>  <r_lp_Energy>  (1) 
51.588003999999998

>  <r_lp_tautomer_probability>  (1) 
1

>  <s_epik_cmdline>  (1) 
J2VwaWtfcHl0aG9uJywgJy1waHQnLCAnMS4wJywgJy1waCcsICc3LjQnLCAnLXRuJywgJzgnLCAnLW1hJywgJzUwMCcsICctaW1hZScsICc8aW5maWxlLm1hZT4nLCAnLW9tYWUnLCAnPG91dGZpbGUubWFlPic=

>  <s_epik_input>  (1) 
Tz1DKFtDSDNdKVtDSDJdW0NAQEhdKFtDSDJdW0NIM10pW0NAQEhdKFtDSDJdL1tDSF09W0NIXVwxKU4oW0NIM10pW0NIMl1DKEMyPU8pPUMxW0NIXT1DKFtDQEhdMjMpQz00QyhTMyk9W0NIXVtDQEhdKFtPSF0pQyhGKShGKVtDSF00

>  <s_glide_docking_method>  (1) 
confgen

>  <s_i_glide_gridfile>  (1) 
gpcr_drd2_6luq_protein_autoprepared_prepared

>  <s_lp_Force_Field>  (1) 
S-OPLS

>  <s_lp_Variant>  (1) 
DiffSBDD_80_num_sample_100-3

>  <s_m_source_file>  (1) 
generated__ligand_DiffSBDD_2026-05-06_prepared.sdf

>  <GenAI_Model>  (1) 
DiffSBDD

>  <Protein>  (1) 
generic_title2

$$$$
DiffSBDD_76_num_sample_100
     RDKit          3D

  0  0  0  0  0  0  0  0  0  0999 V3000
M  V30 BEGIN CTAB
M  V30 COUNTS 78 81 0 0 1
M  V30 BEGIN ATOM
M  V30 1 C 6.348636 4.447942 -13.233729 0
M  V30 2 C 7.786795 2.883026 -17.938779 0
M  V30 3 C 9.156216 4.817346 -12.210905 0
M  V30 4 N 7.261957 3.285062 -13.080352 0 CFG=2 CHG=1
M  V30 5 C 8.177602 2.113493 -19.074486 0
M  V30 6 C 12.376833 7.768186 -3.066702 0
M  V30 7 C 11.834406 6.640901 -3.534996 0
M  V30 8 C 11.318054 7.708088 -7.220875 0 CFG=1
M  V30 9 C 7.036743 4.366776 -15.700752 0
M  V30 10 N 9.873728 6.145142 -8.686853 0 CFG=1 CHG=1
M  V30 11 C 9.200150 5.188224 -7.774234 0
M  V30 12 C 7.214135 2.972366 -15.549485 0
M  V30 13 C 11.102933 6.550354 -4.867683 0
M  V30 14 C 7.776258 0.812044 -16.592227 0
M  V30 15 C 7.244139 4.938996 -16.961620 0
M  V30 16 C 9.646688 8.712771 -9.005303 0
M  V30 17 C 6.645929 5.240896 -14.518966 0
M  V30 18 C 9.427080 6.070597 -10.110989 0
M  V30 19 N 7.605927 4.229675 -18.041783 0
M  V30 20 O 7.834864 5.369240 -8.024807 0
M  V30 21 O 8.915137 -1.426982 -20.024910 0
M  V30 22 C 10.994489 7.889850 -5.679412 0 CFG=1
M  V30 23 C 8.366546 0.687408 -18.958483 0
M  V30 24 C 9.140328 4.676007 -10.693562 0
M  V30 25 N 12.914879 8.516763 -9.072776 0 CHG=1
M  V30 26 C 9.996021 7.520375 -8.078707 0 CFG=2
M  V30 27 O 8.366406 2.760212 -20.267643 0 CHG=-1
M  V30 28 C 8.721409 3.583756 -13.002462 0
M  V30 29 C 7.592684 2.208607 -16.689395 0
M  V30 30 C 7.009777 2.312716 -14.174334 0
M  V30 31 C 12.315285 8.793748 -7.749309 0
M  V30 32 C 12.300818 9.000188 -3.799729 0
M  V30 33 C 11.678811 9.081823 -4.987294 0
M  V30 34 C 8.785701 -0.206179 -20.130832 0
M  V30 35 C 8.158128 0.065298 -17.711964 0
M  V30 36 C 9.058174 0.454313 -21.482998 0
M  V30 37 H 5.326360 4.069018 -13.276256 0
M  V30 38 H 6.379968 5.097577 -12.358102 0
M  V30 39 H 8.593739 5.701188 -12.506748 0
M  V30 40 H 10.184185 5.039074 -12.502219 0
M  V30 41 H 12.881945 7.752499 -2.111565 0
M  V30 42 H 11.906167 5.732932 -2.956092 0
M  V30 43 H 11.880741 6.780214 -7.307705 0
M  V30 44 H 9.443918 5.369239 -6.732541 0
M  V30 45 H 9.434859 4.164030 -8.033909 0
M  V30 46 H 10.103624 6.169391 -4.659269 0
M  V30 47 H 11.607139 5.770670 -5.438703 0
M  V30 48 H 7.622747 0.303607 -15.656053 0
M  V30 49 H 7.121582 6.002158 -17.106235 0
M  V30 50 H 9.030793 9.369296 -8.405715 0
M  V30 51 H 10.478732 9.276542 -9.412316 0
M  V30 52 H 9.034842 8.508130 -9.870490 0
M  V30 53 H 7.457978 5.950312 -14.360578 0
M  V30 54 H 5.775357 5.842404 -14.786492 0
M  V30 55 H 8.475559 6.571167 -10.245452 0
M  V30 56 H 10.170064 6.592345 -10.716865 0
M  V30 57 H 7.517570 6.216096 -7.705005 0
M  V30 58 H 9.954793 8.197635 -5.586157 0
M  V30 59 H 9.835038 3.911841 -10.365334 0
M  V30 60 H 8.156832 4.331427 -10.371897 0
M  V30 61 H 13.508735 9.298586 -9.341420 0
M  V30 62 H 13.486902 7.687558 -9.026745 0
M  V30 63 H 9.149608 7.552339 -7.392131 0
M  V30 64 H 9.046786 3.773270 -14.018552 0
M  V30 65 H 9.264580 2.702813 -12.656558 0
M  V30 66 H 7.695901 1.485728 -14.003168 0
M  V30 67 H 5.999867 1.906987 -14.104858 0
M  V30 68 H 11.835199 9.768808 -7.769393 0
M  V30 69 H 13.171041 8.900129 -7.085745 0
M  V30 70 H 12.752570 9.884812 -3.379115 0
M  V30 71 H 11.636438 10.032440 -5.498094 0
M  V30 72 H 8.294836 -1.003537 -17.615458 0
M  V30 73 H 9.379823 -0.302166 -22.196213 0
M  V30 74 H 8.157984 0.920758 -21.881394 0
M  V30 75 H 9.860148 1.188879 -21.407356 0
M  V30 76 H 12.196841 8.410606 -9.774460 0
M  V30 77 H 7.011880 2.832450 -12.212093 0
M  V30 78 H 10.819773 5.796489 -8.714379 0
M  V30 END ATOM
M  V30 BEGIN BOND
M  V30 1 1 4 1
M  V30 2 2 5 2
M  V30 3 2 7 6
M  V30 4 1 11 10
M  V30 5 2 12 9
M  V30 6 1 13 7
M  V30 7 1 15 9
M  V30 8 1 17 1
M  V30 9 1 17 9
M  V30 10 1 18 10
M  V30 11 1 19 2
M  V30 12 2 19 15
M  V30 13 1 20 11
M  V30 14 1 22 8
M  V30 15 1 22 13
M  V30 16 1 23 5
M  V30 17 1 24 3
M  V30 18 1 24 18
M  V30 19 1 26 8
M  V30 20 1 26 10
M  V30 21 1 26 16
M  V30 22 1 27 5
M  V30 23 1 28 3
M  V30 24 1 28 4
M  V30 25 1 29 2
M  V30 26 1 29 12
M  V30 27 2 29 14
M  V30 28 1 30 4
M  V30 29 1 30 12
M  V30 30 1 31 8
M  V30 31 1 31 25
M  V30 32 1 32 6
M  V30 33 1 33 22
M  V30 34 2 33 32
M  V30 35 2 34 21
M  V30 36 1 34 23
M  V30 37 1 35 14
M  V30 38 2 35 23
M  V30 39 1 36 34
M  V30 40 1 37 1
M  V30 41 1 38 1
M  V30 42 1 39 3
M  V30 43 1 40 3
M  V30 44 1 41 6
M  V30 45 1 42 7
M  V30 46 1 8 43 CFG=1
M  V30 47 1 44 11
M  V30 48 1 45 11
M  V30 49 1 46 13
M  V30 50 1 47 13
M  V30 51 1 48 14
M  V30 52 1 49 15
M  V30 53 1 50 16
M  V30 54 1 51 16
M  V30 55 1 52 16
M  V30 56 1 53 17
M  V30 57 1 54 17
M  V30 58 1 55 18
M  V30 59 1 56 18
M  V30 60 1 57 20
M  V30 61 1 22 58 CFG=3
M  V30 62 1 59 24
M  V30 63 1 60 24
M  V30 64 1 61 25
M  V30 65 1 62 25
M  V30 66 1 26 63 CFG=1
M  V30 67 1 64 28
M  V30 68 1 65 28
M  V30 69 1 66 30
M  V30 70 1 67 30
M  V30 71 1 68 31
M  V30 72 1 69 31
M  V30 73 1 70 32
M  V30 74 1 71 33
M  V30 75 1 72 35
M  V30 76 1 73 36
M  V30 77 1 74 36
M  V30 78 1 75 36
M  V30 79 1 76 25
M  V30 80 1 4 77 CFG=1
M  V30 81 1 10 78 CFG=3
M  V30 END BOND
M  V30 END CTAB
M  END
>  <i_epik_Tot_Q>  (1) 
2

>  <i_epik_Tot_abs_Q>  (1) 
4

>  <i_i_glide_confnum>  (1) 
1726

>  <i_i_glide_lignum>  (1) 
155

>  <i_i_glide_posenum>  (1) 
175

>  <i_i_glide_rotatable_bonds>  (1) 
12

>  <i_lp_mmshare_version>  (1) 
72125

>  <i_m_source_file_index>  (1) 
77

>  <i_f3d_flags>  (1) 
0

>  <num_sample>  (1) 
100

>  <b_lp_Chiralities_Consistent>  (1) 
1

>  <r_epik_Charging_Adjusted_Penalty>  (1) 
2.7385366295040585

>  <r_epik_Ionization_Penalty>  (1) 
1.4403839023663505

>  <r_epik_Ionization_Penalty_Charging>  (1) 
1.4088334024277234

>  <r_epik_Ionization_Penalty_Neutral>  (1) 
0.03155049993862722

>  <r_epik_State_Penalty>  (1) 
1.3297032270763354

>  <r_glide_ring_energy>  (1) 
0.68305203791256597

>  <r_i_docking_score>  (1) 
-3.5993069951332797

>  <r_i_glide_ecoul>  (1) 
-8.1196817431880373

>  <r_i_glide_eff_state_penalty>  (1) 
1.3297032270763354

>  <r_i_glide_einternal>  (1) 
40.465493846206044

>  <r_i_glide_emodel>  (1) 
-26.276980774633913

>  <r_i_glide_emodel_strain>  (1) 
11.844795532997196

>  <r_i_glide_energy>  (1) 
-42.807721581720003

>  <r_i_glide_erotb>  (1) 
0.66625950385389887

>  <r_i_glide_esite>  (1) 
-0.038556522761111586

>  <r_i_glide_evdw>  (1) 
-34.688039838531964

>  <r_i_glide_gscore>  (1) 
-4.929010222209615

>  <r_i_glide_gscore_strain>  (1) 
1.961198883249299

>  <r_i_glide_hbond>  (1) 
-0.18876770369497911

>  <r_i_glide_ligand_efficiency>  (1) 
-0.099980749864813326

>  <r_i_glide_ligand_efficiency_ln>  (1) 
-0.78527154430077528

>  <r_i_glide_ligand_efficiency_sa>  (1) 
-0.33012916234354495

>  <r_i_glide_lipo>  (1) 
-3.6708083856247447

>  <r_i_glide_metal>  (1) 
-0

>  <r_i_glide_rewards>  (1) 
-0.70598174382717349

>  <r_lp_Energy>  (1) 
77.906815999999992

>  <r_lp_tautomer_probability>  (1) 
0.99995000000000001

>  <s_epik_Chemistry_Notes>  (1) 
This compound contains an acetal/aminal-like group ( X-CH(R)-Y where X, Y are N, S, or O) that may be acid/base labile, releasing an aldehyde.

>  <s_epik_cmdline>  (1) 
J2VwaWtfcHl0aG9uJywgJy1waHQnLCAnMS4wJywgJy1waCcsICc3LjQnLCAnLXRuJywgJzgnLCAnLW1hJywgJzUwMCcsICctaW1hZScsICc8aW5maWxlLm1hZT4nLCAnLW9tYWUnLCAnPG91dGZpbGUubWFlPic=

>  <s_epik_input>  (1) 
Tz1DKFtDSDNdKWMoYzFbT0hdKVtjSF1bY0hdYyhjMTIpYzNjKFtjSF1uMilbQ0gyXVtDSDJdTihbQ0gyXTMpW0NIMl1bQ0gyXVtDSDJdW0NIMl1OKFtDSDJdW09IXSlbQ0BIXShbQ0gzXSlbQ0BASF0oW0NIMl1bTkgyXSlbQ0BIXTRbQ0gyXVtDSF09W0NIXVtDSF09W0NIXTQ=

>  <s_glide_docking_method>  (1) 
confgen

>  <s_i_glide_gridfile>  (1) 
gpcr_drd2_6luq_protein_autoprepared_prepared

>  <s_lp_Force_Field>  (1) 
S-OPLS

>  <s_lp_Variant>  (1) 
DiffSBDD_76_num_sample_100-4

>  <s_m_source_file>  (1) 
generated__ligand_DiffSBDD_2026-05-06_prepared.sdf

>  <GenAI_Model>  (1) 
DiffSBDD

>  <Protein>  (1) 
generic_title2

$$$$
DiffSBDD_12_num_sample_100
     RDKit          3D

  0  0  0  0  0  0  0  0  0  0999 V3000
M  V30 BEGIN CTAB
M  V30 COUNTS 67 71 0 0 1
M  V30 BEGIN ATOM
M  V30 1 C 4.634838 7.668059 -19.631174 0
M  V30 2 C 5.557941 6.836062 -18.909158 0
M  V30 3 F 5.140955 8.281427 -23.661779 0
M  V30 4 O 10.039597 4.569302 -15.559982 0
M  V30 5 C 11.834755 9.027247 -9.930916 0
M  V30 6 C 7.652273 5.507913 -18.896312 0
M  V30 7 C 6.398015 5.815255 -19.667941 0 CFG=2
M  V30 8 F 6.862783 6.974819 -23.757833 0
M  V30 9 C 9.896095 8.362350 -7.737988 0
M  V30 10 C 5.834837 6.948564 -14.542274 0
M  V30 11 C 5.618993 7.093176 -23.291787 0
M  V30 12 C 7.397459 4.816499 -11.493423 0 CFG=1
M  V30 13 C 9.289919 7.711404 -6.498836 0
M  V30 14 C 9.492048 6.216681 -6.671822 0
M  V30 15 C 11.855414 7.698360 -9.197980 0
M  V30 16 C 5.576034 6.927284 -21.782043 0
M  V30 17 C 5.711044 6.984910 -17.573400 0
M  V30 18 C 7.742489 5.741183 -17.581430 0
M  V30 19 O 6.327567 5.632247 -11.091717 0
M  V30 20 O 8.040701 6.169303 -14.847671 0
M  V30 21 C 9.274538 4.621010 -12.967998 0 CFG=1
M  V30 22 C 10.472726 7.253642 -8.657164 0
M  V30 23 C 6.821234 6.490274 -15.393743 0
M  V30 24 F 4.869960 6.148535 -23.858442 0
M  V30 25 C 9.735973 5.859087 -10.847095 0
M  V30 26 C 10.627578 6.070604 -7.681773 0
M  V30 27 C 6.965643 3.944554 -12.687635 0
M  V30 28 P 8.815662 4.753451 -14.732015 0 CFG=1
M  V30 29 C 8.670985 5.573199 -11.943746 0 CFG=2
M  V30 30 C 9.426324 6.926556 -9.778750 0
M  V30 31 O 5.769768 7.157063 -13.313855 0 CHG=-1
M  V30 32 C 4.634814 7.708520 -20.977056 0
M  V30 33 C 6.415816 6.066505 -21.163651 0
M  V30 34 N 6.711143 6.326446 -16.832491 0
M  V30 35 C 8.244878 3.627224 -13.414501 0 CFG=1
M  V30 36 H 3.940614 8.289107 -19.084838 0
M  V30 37 H 12.788610 9.223605 -10.418617 0
M  V30 38 H 11.065477 8.969297 -10.691662 0
M  V30 39 H 11.611659 9.870766 -9.280387 0
M  V30 40 H 8.478342 5.067856 -19.434499 0
M  V30 41 H 5.836627 4.882386 -19.591831 0
M  V30 42 H 10.680387 9.035264 -7.393852 0
M  V30 43 H 9.152166 8.970004 -8.252253 0
M  V30 44 H 4.983078 7.128310 -15.190294 0
M  V30 45 H 7.651523 4.169304 -10.654310 0
M  V30 46 H 9.817769 8.054164 -5.607949 0
M  V30 47 H 8.235675 7.962074 -6.373813 0
M  V30 48 H 9.735684 5.769304 -5.713245 0
M  V30 49 H 8.576874 5.762754 -7.053574 0
M  V30 50 H 12.580534 7.769319 -8.386028 0
M  V30 51 H 12.252956 6.969309 -9.891635 0
M  V30 52 H 5.136006 7.703059 -17.021321 0
M  V30 53 H 8.618340 5.520414 -17.043354 0
M  V30 54 H 6.146593 6.261818 -11.792065 0
M  V30 55 H 10.234840 4.191579 -12.716163 0
M  V30 56 H 9.920308 4.909143 -10.349064 0
M  V30 57 H 10.634841 6.169312 -11.372220 0
M  V30 58 H 10.618795 5.098224 -8.173783 0
M  V30 59 H 11.571293 6.143838 -7.138414 0
M  V30 60 H 6.468338 3.031973 -12.361025 0
M  V30 61 H 6.290676 4.467998 -13.361831 0
M  V30 62 H 8.402752 6.504973 -12.441244 0
M  V30 63 H 9.112713 7.839796 -10.286306 0
M  V30 64 H 8.554233 6.554470 -9.259290 0
M  V30 65 H 3.932224 8.358665 -21.477798 0
M  V30 66 H 7.117866 5.486917 -21.745884 0
M  V30 67 H 8.538364 2.582147 -13.483916 0
M  V30 END ATOM
M  V30 BEGIN BOND
M  V30 1 1 2 1
M  V30 2 1 7 2
M  V30 3 1 7 6
M  V30 4 1 11 3
M  V30 5 1 11 8
M  V30 6 1 13 9
M  V30 7 1 14 13
M  V30 8 1 15 5
M  V30 9 1 16 11
M  V30 10 2 17 2
M  V30 11 2 18 6
M  V30 12 1 19 12
M  V30 13 1 22 9
M  V30 14 1 22 15
M  V30 15 2 23 10
M  V30 16 1 23 20
M  V30 17 1 24 11
M  V30 18 1 26 14
M  V30 19 1 26 22
M  V30 20 1 27 12
M  V30 21 2 28 4
M  V30 22 1 28 20 CFG=1
M  V30 23 1 28 21
M  V30 24 1 29 12
M  V30 25 1 29 21
M  V30 26 1 29 25
M  V30 27 1 30 22
M  V30 28 1 30 25
M  V30 29 1 31 10
M  V30 30 2 32 1
M  V30 31 1 32 16
M  V30 32 1 33 7
M  V30 33 2 33 16
M  V30 34 1 34 17
M  V30 35 1 34 18
M  V30 36 1 34 23
M  V30 37 1 35 21
M  V30 38 1 35 27
M  V30 39 1 35 28
M  V30 40 1 36 1
M  V30 41 1 37 5
M  V30 42 1 38 5
M  V30 43 1 39 5
M  V30 44 1 40 6
M  V30 45 1 7 41 CFG=3
M  V30 46 1 42 9
M  V30 47 1 43 9
M  V30 48 1 44 10
M  V30 49 1 12 45 CFG=1
M  V30 50 1 46 13
M  V30 51 1 47 13
M  V30 52 1 48 14
M  V30 53 1 49 14
M  V30 54 1 50 15
M  V30 55 1 51 15
M  V30 56 1 52 17
M  V30 57 1 53 18
M  V30 58 1 54 19
M  V30 59 1 21 55 CFG=3
M  V30 60 1 56 25
M  V30 61 1 57 25
M  V30 62 1 58 26
M  V30 63 1 59 26
M  V30 64 1 60 27
M  V30 65 1 61 27
M  V30 66 1 29 62 CFG=3
M  V30 67 1 63 30
M  V30 68 1 64 30
M  V30 69 1 65 32
M  V30 70 1 66 33
M  V30 71 1 35 67 CFG=3
M  V30 END BOND
M  V30 END CTAB
M  END
>  <i_epik_Tot_Q>  (1) 
-1

>  <i_epik_Tot_abs_Q>  (1) 
1

>  <i_i_glide_confnum>  (1) 
554

>  <i_i_glide_lignum>  (1) 
21

>  <i_i_glide_posenum>  (1) 
256

>  <i_i_glide_rotatable_bonds>  (1) 
9

>  <i_lp_mmshare_version>  (1) 
72125

>  <i_m_source_file_index>  (1) 
13

>  <i_f3d_flags>  (1) 
0

>  <num_sample>  (1) 
100

>  <b_lp_Chiralities_Consistent>  (1) 
1

>  <r_epik_Charging_Adjusted_Penalty>  (1) 
6.0913929175536644e-07

>  <r_epik_Ionization_Penalty>  (1) 
7.5242037030438095e-07

>  <r_epik_Ionization_Penalty_Charging>  (1) 
6.0913929175536644e-07

>  <r_epik_Ionization_Penalty_Neutral>  (1) 
1.4328107854901448e-07

>  <r_epik_State_Penalty>  (1) 
-0

>  <r_glide_ring_energy>  (1) 
0.00028320506983089342

>  <r_i_docking_score>  (1) 
-3.5942684178893018

>  <r_i_glide_ecoul>  (1) 
2.4283678301620135

>  <r_i_glide_eff_state_penalty>  (1) 
-0

>  <r_i_glide_einternal>  (1) 
12.600731436333799

>  <r_i_glide_emodel>  (1) 
-21.83609271605026

>  <r_i_glide_emodel_strain>  (1) 
2.2489084991058661

>  <r_i_glide_energy>  (1) 
-24.655650179720453

>  <r_i_glide_erotb>  (1) 
0.47163652173243925

>  <r_i_glide_esite>  (1) 
0

>  <r_i_glide_evdw>  (1) 
-27.084018009882467

>  <r_i_glide_gscore>  (1) 
-3.5942684178893018

>  <r_i_glide_gscore_strain>  (1) 
0

>  <r_i_glide_hbond>  (1) 
0

>  <r_i_glide_ligand_efficiency>  (1) 
-0.10269338336826576

>  <r_i_glide_ligand_efficiency_ln>  (1) 
-0.78902168821631657

>  <r_i_glide_ligand_efficiency_sa>  (1) 
-0.33591686661521541

>  <r_i_glide_lipo>  (1) 
-2.2198643144931016

>  <r_i_glide_metal>  (1) 
-0

>  <r_i_glide_rewards>  (1) 
-0.85609489915881798

>  <r_lp_Energy>  (1) 
58.565332999999995

>  <r_lp_tautomer_probability>  (1) 
1

>  <s_epik_Chemistry_Notes>  (1) 
This compound has an imine and may undergo hydrolysis.

>  <s_epik_cmdline>  (1) 
J2VwaWtfcHl0aG9uJywgJy1waHQnLCAnMS4wJywgJy1waCcsICc3LjQnLCAnLXRuJywgJzgnLCAnLW1hJywgJzUwMCcsICctaW1hZScsICc8aW5maWxlLm1hZT4nLCAnLW9tYWUnLCAnPG91dGZpbGUubWFlPic=

>  <s_epik_input>  (1) 
W0NIXTE9W0NIXUMoQyhGKShGKUYpPVtDSF1bQ0BASF0oQzE9MilbQ0hdPVtDSF1OKFtDSF0yKVtDQEBIXShbQ0hdPU8pT1tQQF0zKD1PKVtDQEBIXShbQ0BASF0zNClbQ0gyXVtDQEhdKFtPSF0pW0NASF00W0NIMl1bQ0gyXUM1KFtDSDJdW0NIM10pW0NIMl1bQ0gyXVtDSDJdW0NIMl01

>  <s_glide_docking_method>  (1) 
confgen

>  <s_i_glide_gridfile>  (1) 
gpcr_drd2_6luq_protein_autoprepared_prepared

>  <s_lp_Force_Field>  (1) 
S-OPLS

>  <s_lp_Variant>  (1) 
DiffSBDD_12_num_sample_100-2

>  <s_m_source_file>  (1) 
generated__ligand_DiffSBDD_2026-05-06_prepared.sdf

>  <GenAI_Model>  (1) 
DiffSBDD

>  <Protein>  (1) 
generic_title2

$$$$
DiffSBDD_55_num_sample_100
     RDKit          3D

  0  0  0  0  0  0  0  0  0  0999 V3000
M  V30 BEGIN CTAB
M  V30 COUNTS 50 53 0 0 1
M  V30 BEGIN ATOM
M  V30 1 O 9.881046 1.001533 -20.122513 0
M  V30 2 C 7.225289 6.875760 -13.245802 0
M  V30 3 C 6.814559 -0.230700 -16.446278 0
M  V30 4 C 6.631811 0.227523 -13.442684 0
M  V30 5 C 8.079344 1.735506 -18.025715 0 CFG=2
M  V30 6 C 8.356948 0.267324 -18.347107 0 CFG=1
M  V30 7 S 8.810409 4.976356 -12.095371 0
M  V30 8 C 8.423419 6.738902 -12.291664 0
M  V30 9 C 6.474434 5.554079 -13.184802 0
M  V30 10 C 12.032353 0.569301 -19.325495 0
M  V30 11 N 6.854086 1.093986 -15.820414 0
M  V30 12 C 9.690990 0.034603 -19.100176 0 CFG=2
M  V30 13 C 8.144258 -0.629973 -17.108771 0 CFG=2
M  V30 14 C 10.988809 0.169303 -18.291669 0
M  V30 15 C 11.216604 0.868176 -20.584081 0
M  V30 16 C 6.904733 3.063557 -12.822659 0
M  V30 17 C 7.386484 1.142145 -14.437717 0 CFG=1
M  V30 18 C 7.081960 4.478100 -12.294812 0 CFG=1
M  V30 19 C 8.785581 2.447280 -16.908875 0
M  V30 20 O 5.434857 5.368658 -13.817305 0
M  V30 21 O 8.074825 -1.988242 -17.491669 0
M  V30 22 C 7.541922 2.574585 -13.906749 0
M  V30 23 C 7.315516 2.134273 -16.760888 0 CFG=1
M  V30 24 H 6.579385 7.705541 -12.959713 0
M  V30 25 H 7.562028 7.038824 -14.269579 0
M  V30 26 H 6.035165 -0.228967 -17.209751 0
M  V30 27 H 6.495631 -0.994220 -15.742159 0
M  V30 28 H 7.049622 0.306105 -12.438440 0
M  V30 29 H 5.571929 0.479384 -13.391681 0
M  V30 30 H 6.698639 -0.827113 -13.699156 0
M  V30 31 H 7.887270 2.341383 -18.909240 0
M  V30 32 H 7.573862 -0.003467 -19.057140 0
M  V30 33 H 8.173637 7.147078 -11.312337 0
M  V30 34 H 9.296192 7.280130 -12.656034 0
M  V30 35 H 12.757206 -0.224967 -19.507024 0
M  V30 36 H 12.579013 1.452243 -18.992324 0
M  V30 37 H 9.669371 -0.952950 -19.565626 0
M  V30 38 H 8.964522 -0.525863 -16.399116 0
M  V30 39 H 10.927338 0.959868 -17.550672 0
M  V30 40 H 11.244050 -0.750913 -17.765816 0
M  V30 41 H 11.272026 0.033826 -21.285073 0
M  V30 42 H 11.551342 1.768993 -21.098943 0
M  V30 43 H 6.223197 2.435766 -12.273256 0
M  V30 44 H 8.408871 0.765001 -14.466826 0
M  V30 45 H 6.601356 4.545049 -11.318254 0
M  V30 46 H 9.065303 3.485869 -17.072231 0
M  V30 47 H 9.464890 1.875663 -16.291670 0
M  V30 48 H 7.888692 -2.506879 -16.715502 0
M  V30 49 H 8.219350 3.215786 -14.449416 0
M  V30 50 H 6.634840 2.978649 -16.799771 0
M  V30 END ATOM
M  V30 BEGIN BOND
M  V30 1 1 6 5
M  V30 2 1 8 2
M  V30 3 1 8 7
M  V30 4 1 9 2
M  V30 5 1 11 3
M  V30 6 1 12 1
M  V30 7 1 12 6
M  V30 8 1 13 3
M  V30 9 1 13 6
M  V30 10 1 14 10
M  V30 11 1 14 12
M  V30 12 1 15 1
M  V30 13 1 15 10
M  V30 14 1 17 4
M  V30 15 1 17 11
M  V30 16 1 18 7
M  V30 17 1 18 9
M  V30 18 1 18 16
M  V30 19 1 19 5
M  V30 20 2 20 9
M  V30 21 1 21 13
M  V30 22 2 22 16
M  V30 23 1 22 17
M  V30 24 1 23 5
M  V30 25 1 23 11
M  V30 26 1 23 19
M  V30 27 1 24 2
M  V30 28 1 25 2
M  V30 29 1 26 3
M  V30 30 1 27 3
M  V30 31 1 28 4
M  V30 32 1 29 4
M  V30 33 1 30 4
M  V30 34 1 5 31 CFG=3
M  V30 35 1 6 32 CFG=3
M  V30 36 1 33 8
M  V30 37 1 34 8
M  V30 38 1 35 10
M  V30 39 1 36 10
M  V30 40 1 12 37 CFG=3
M  V30 41 1 13 38 CFG=1
M  V30 42 1 39 14
M  V30 43 1 40 14
M  V30 44 1 41 15
M  V30 45 1 42 15
M  V30 46 1 43 16
M  V30 47 1 17 44 CFG=3
M  V30 48 1 18 45 CFG=1
M  V30 49 1 46 19
M  V30 50 1 47 19
M  V30 51 1 48 21
M  V30 52 1 49 22
M  V30 53 1 23 50 CFG=3
M  V30 END BOND
M  V30 END CTAB
M  END
>  <i_epik_Tot_Q>  (1) 
0

>  <i_epik_Tot_abs_Q>  (1) 
0

>  <i_i_glide_confnum>  (1) 
212

>  <i_i_glide_lignum>  (1) 
108

>  <i_i_glide_posenum>  (1) 
326

>  <i_i_glide_rotatable_bonds>  (1) 
5

>  <i_lp_mmshare_version>  (1) 
72125

>  <i_m_source_file_index>  (1) 
56

>  <i_f3d_flags>  (1) 
0

>  <num_sample>  (1) 
100

>  <b_lp_Chiralities_Consistent>  (1) 
1

>  <r_epik_Charging_Adjusted_Penalty>  (1) 
1.1351003249830234

>  <r_epik_Ionization_Penalty>  (1) 
1.13510036387319

>  <r_epik_Ionization_Penalty_Charging>  (1) 
0

>  <r_epik_Ionization_Penalty_Neutral>  (1) 
1.13510036387319

>  <r_epik_State_Penalty>  (1) 
1.1351003249830234

>  <r_glide_ring_energy>  (1) 
0

>  <r_i_docking_score>  (1) 
-3.5842482000995393

>  <r_i_glide_ecoul>  (1) 
-4.1932517626637882

>  <r_i_glide_eff_state_penalty>  (1) 
1.1351003249830234

>  <r_i_glide_einternal>  (1) 
4.8696136422037473

>  <r_i_glide_emodel>  (1) 
-37.965535299681513

>  <r_i_glide_emodel_strain>  (1) 
0

>  <r_i_glide_energy>  (1) 
-33.195260433216411

>  <r_i_glide_erotb>  (1) 
0.4978175189556282

>  <r_i_glide_esite>  (1) 
0

>  <r_i_glide_evdw>  (1) 
-29.002008670552623

>  <r_i_glide_gscore>  (1) 
-4.7193485250825624

>  <r_i_glide_gscore_strain>  (1) 
0

>  <r_i_glide_hbond>  (1) 
-0.32000000000000001

>  <r_i_glide_ligand_efficiency>  (1) 
-0.15583687826519735

>  <r_i_glide_ligand_efficiency_ln>  (1) 
-0.86670371494988097

>  <r_i_glide_ligand_efficiency_sa>  (1) 
-0.44317935234154288

>  <r_i_glide_lipo>  (1) 
-1.2563885963181909

>  <r_i_glide_metal>  (1) 
-0

>  <r_i_glide_rewards>  (1) 
-1.561689249792801

>  <r_lp_Energy>  (1) 
15.605067999999999

>  <r_lp_tautomer_probability>  (1) 
0.99995000000000001

>  <s_epik_cmdline>  (1) 
J2VwaWtfcHl0aG9uJywgJy1waHQnLCAnMS4wJywgJy1waCcsICc3LjQnLCAnLXRuJywgJzgnLCAnLW1hJywgJzUwMCcsICctaW1hZScsICc8aW5maWxlLm1hZT4nLCAnLW9tYWUnLCAnPG91dGZpbGUubWFlPic=

>  <s_epik_input>  (1) 
W0NIMl0xW0NIMl1bQ0gyXU9bQ0BASF0xW0NASF0yW0NASF0oW09IXSlbQ0gyXU4oW0NASF0oW0NASF0yMylbQ0gyXTMpW0NASF0oW0NIM10pXFtDSF09W0NIXVxbQ0BIXTRTW0NIMl1bQ0gyXUM0PU8=

>  <s_glide_docking_method>  (1) 
confgen

>  <s_i_glide_gridfile>  (1) 
gpcr_drd2_6luq_protein_autoprepared_prepared

>  <s_lp_Force_Field>  (1) 
S-OPLS

>  <s_lp_Variant>  (1) 
DiffSBDD_55_num_sample_100-9

>  <s_m_source_file>  (1) 
generated__ligand_DiffSBDD_2026-05-06_prepared.sdf

>  <GenAI_Model>  (1) 
DiffSBDD

>  <Protein>  (1) 
generic_title2

$$$$
DiffSBDD_80_num_sample_100
     RDKit          3D

  0  0  0  0  0  0  0  0  0  0999 V3000
M  V30 BEGIN CTAB
M  V30 COUNTS 57 60 0 0 1
M  V30 BEGIN ATOM
M  V30 1 C 8.634823 4.317792 -14.685780 0
M  V30 2 C 10.104892 3.445838 -17.714554 0
M  V30 3 O 6.234836 2.037777 -13.583392 0
M  V30 4 C 12.039896 6.719324 -18.862139 0
M  V30 5 C 7.034856 1.406924 -14.270462 0
M  V30 6 C 12.476541 4.329863 -17.389085 0
M  V30 7 C 7.659289 2.007620 -15.536354 0
M  V30 8 C 7.446929 -0.007710 -13.900881 0
M  V30 9 C 8.298072 2.087664 -18.580543 0
M  V30 10 C 7.777314 4.045120 -17.176685 0 CFG=2
M  V30 11 C 13.407279 5.499845 -17.192157 0 CFG=2
M  V30 12 O 17.457123 9.604361 -17.947359 0 CHG=-1
M  V30 13 C 14.378885 7.327825 -18.516395 0
M  V30 14 C 8.132459 5.515160 -17.288234 0
M  V30 15 C 13.224646 6.546271 -18.247930 0
M  V30 16 C 15.691070 9.245013 -19.531194 0
M  V30 17 C 10.894620 5.826493 -18.615949 0
M  V30 18 F 15.434756 10.515394 -19.203940 0
M  V30 19 C 11.104211 4.623297 -17.914338 0
M  V30 20 C 8.663285 3.912216 -13.204129 0
M  V30 21 C 14.412489 8.431423 -19.286938 0
M  V30 22 C 15.535457 6.832215 -17.891670 0
M  V30 23 C 7.678939 3.556243 -15.670350 0 CFG=2
M  V30 24 O 12.853544 3.197275 -17.091629 0
M  V30 25 S 15.277307 5.335405 -16.969242 0
M  V30 26 N 8.707353 3.409600 -18.115180 0
M  V30 27 F 15.941706 9.250022 -20.841620 0
M  V30 28 C 9.603027 6.201132 -19.238380 0
M  V30 29 C 8.381890 6.017394 -18.691585 0
M  V30 30 C 16.743292 7.427527 -17.996958 0
M  V30 31 C 17.003677 8.713855 -18.794863 0 CFG=2
M  V30 32 H 9.656107 4.317501 -15.056137 0
M  V30 33 H 8.341904 5.367612 -14.673219 0
M  V30 34 H 10.582562 2.656202 -18.297184 0
M  V30 35 H 10.186030 3.083163 -16.692060 0
M  V30 36 H 11.930344 7.505981 -19.590944 0
M  V30 37 H 8.663912 1.606163 -15.655517 0
M  V30 38 H 7.058128 1.601710 -16.348126 0
M  V30 39 H 7.534580 -0.630703 -14.791300 0
M  V30 40 H 6.708276 -0.458605 -13.237014 0
M  V30 41 H 8.411075 0.014821 -13.393372 0
M  V30 42 H 7.230123 2.056301 -18.798704 0
M  V30 43 H 8.536473 1.301415 -17.866309 0
M  V30 44 H 8.823324 1.846804 -19.505364 0
M  V30 45 H 6.787590 3.923920 -17.619215 0
M  V30 46 H 13.064310 5.965703 -16.267800 0
M  V30 47 H 7.331184 6.115821 -16.856675 0
M  V30 48 H 9.018871 5.769303 -16.713152 0
M  V30 49 H 9.331770 4.569789 -12.647820 0
M  V30 50 H 9.034820 2.898318 -13.060139 0
M  V30 51 H 7.678920 3.996756 -12.744399 0
M  V30 52 H 13.515149 8.797004 -19.757853 0
M  V30 53 H 6.684824 3.882712 -15.360825 0
M  V30 54 H 9.641096 6.668150 -20.211762 0
M  V30 55 H 7.507505 6.321428 -19.247641 0
M  V30 56 H 17.596206 6.991177 -17.498359 0
M  V30 57 H 17.655729 8.349043 -19.589575 0
M  V30 END ATOM
M  V30 BEGIN BOND
M  V30 1 2 5 3
M  V30 2 1 7 5
M  V30 3 1 8 5
M  V30 4 1 11 6
M  V30 5 1 14 10
M  V30 6 2 15 4
M  V30 7 1 15 11
M  V30 8 1 15 13
M  V30 9 1 17 4
M  V30 10 1 18 16
M  V30 11 1 19 2
M  V30 12 1 19 6
M  V30 13 2 19 17
M  V30 14 1 20 1
M  V30 15 2 21 13
M  V30 16 1 21 16
M  V30 17 1 22 13
M  V30 18 1 23 1
M  V30 19 1 23 7
M  V30 20 1 23 10
M  V30 21 2 24 6
M  V30 22 1 25 11
M  V30 23 1 25 22
M  V30 24 1 26 2
M  V30 25 1 26 9
M  V30 26 1 26 10
M  V30 27 1 27 16
M  V30 28 1 28 17
M  V30 29 1 29 14
M  V30 30 2 29 28
M  V30 31 2 30 22
M  V30 32 1 31 12
M  V30 33 1 31 16
M  V30 34 1 31 30
M  V30 35 1 32 1
M  V30 36 1 33 1
M  V30 37 1 34 2
M  V30 38 1 35 2
M  V30 39 1 36 4
M  V30 40 1 37 7
M  V30 41 1 38 7
M  V30 42 1 39 8
M  V30 43 1 40 8
M  V30 44 1 41 8
M  V30 45 1 42 9
M  V30 46 1 43 9
M  V30 47 1 44 9
M  V30 48 1 10 45 CFG=3
M  V30 49 1 11 46 CFG=1
M  V30 50 1 47 14
M  V30 51 1 48 14
M  V30 52 1 49 20
M  V30 53 1 50 20
M  V30 54 1 51 20
M  V30 55 1 52 21
M  V30 56 1 23 53 CFG=1
M  V30 57 1 54 28
M  V30 58 1 55 29
M  V30 59 1 56 30
M  V30 60 1 31 57 CFG=3
M  V30 END BOND
M  V30 END CTAB
M  END
>  <i_epik_Tot_Q>  (1) 
-1

>  <i_epik_Tot_abs_Q>  (1) 
1

>  <i_i_glide_confnum>  (1) 
5

>  <i_i_glide_lignum>  (1) 
163

>  <i_i_glide_posenum>  (1) 
202

>  <i_i_glide_rotatable_bonds>  (1) 
4

>  <i_lp_mmshare_version>  (1) 
72125

>  <i_m_source_file_index>  (1) 
81

>  <i_f3d_flags>  (1) 
0

>  <num_sample>  (1) 
100

>  <b_lp_Chiralities_Consistent>  (1) 
1

>  <r_epik_Charging_Adjusted_Penalty>  (1) 
8.7803366933407872e-06

>  <r_epik_Ionization_Penalty>  (1) 
0.00048743314384941063

>  <r_epik_Ionization_Penalty_Charging>  (1) 
8.7803366933407872e-06

>  <r_epik_Ionization_Penalty_Neutral>  (1) 
0.00047865280715606983

>  <r_epik_State_Penalty>  (1) 
-0

>  <r_glide_ring_energy>  (1) 
0

>  <r_i_docking_score>  (1) 
-3.5838794585955993

>  <r_i_glide_ecoul>  (1) 
-0.38828222484373248

>  <r_i_glide_eff_state_penalty>  (1) 
-0

>  <r_i_glide_einternal>  (1) 
8.1812387092001817

>  <r_i_glide_emodel>  (1) 
-29.289311380734745

>  <r_i_glide_emodel_strain>  (1) 
3.1609586769919531

>  <r_i_glide_energy>  (1) 
-30.666437362878785

>  <r_i_glide_erotb>  (1) 
0.20077648214602295

>  <r_i_glide_esite>  (1) 
0

>  <r_i_glide_evdw>  (1) 
-30.278155138035054

>  <r_i_glide_gscore>  (1) 
-3.5838794585955993

>  <r_i_glide_gscore_strain>  (1) 
0

>  <r_i_glide_hbond>  (1) 
0

>  <r_i_glide_ligand_efficiency>  (1) 
-0.11560901479340643

>  <r_i_glide_ligand_efficiency_ln>  (1) 
-0.80827465062830339

>  <r_i_glide_ligand_efficiency_sa>  (1) 
-0.36317192231403733

>  <r_i_glide_lipo>  (1) 
-1.3754772090272898

>  <r_i_glide_metal>  (1) 
-0

>  <r_i_glide_rewards>  (1) 
-0.83702864108601971

>  <r_lp_Energy>  (1) 
60.210590999999994

>  <r_lp_tautomer_probability>  (1) 
1

>  <s_epik_cmdline>  (1) 
J2VwaWtfcHl0aG9uJywgJy1waHQnLCAnMS4wJywgJy1waCcsICc3LjQnLCAnLXRuJywgJzgnLCAnLW1hJywgJzUwMCcsICctaW1hZScsICc8aW5maWxlLm1hZT4nLCAnLW9tYWUnLCAnPG91dGZpbGUubWFlPic=

>  <s_epik_input>  (1) 
Tz1DKFtDSDNdKVtDSDJdW0NAQEhdKFtDSDJdW0NIM10pW0NAQEhdKFtDSDJdL1tDSF09W0NIXVwxKU4oW0NIM10pW0NIMl1DKEMyPU8pPUMxW0NIXT1DKFtDQEhdMjMpQz00QyhTMyk9W0NIXVtDQEhdKFtPSF0pQyhGKShGKVtDSF00

>  <s_glide_docking_method>  (1) 
confgen

>  <s_i_glide_gridfile>  (1) 
gpcr_drd2_6luq_protein_autoprepared_prepared

>  <s_lp_Force_Field>  (1) 
S-OPLS

>  <s_lp_Variant>  (1) 
DiffSBDD_80_num_sample_100-2

>  <s_m_source_file>  (1) 
generated__ligand_DiffSBDD_2026-05-06_prepared.sdf

>  <GenAI_Model>  (1) 
DiffSBDD

>  <Protein>  (1) 
generic_title2

$$$$
DiffSBDD_66_num_sample_100
     RDKit          3D

  0  0  0  0  0  0  0  0  0  0999 V3000
M  V30 BEGIN CTAB
M  V30 COUNTS 88 91 0 0 1
M  V30 BEGIN ATOM
M  V30 1 C 10.313636 5.669481 -17.033475 0
M  V30 2 F 6.248642 3.761632 -14.201119 0
M  V30 3 C 9.570771 6.258945 -19.508995 0 CFG=1
M  V30 4 N 11.338412 3.991683 -20.445458 0
M  V30 5 C 12.423147 1.946690 -19.759011 0
M  V30 6 F 9.639570 6.843173 -21.797861 0
M  V30 7 O 8.759121 3.975461 -12.058103 0
M  V30 8 N 13.785674 3.612476 -18.634920 0
M  V30 9 O 5.361032 4.566831 -12.280989 0
M  V30 10 C 11.117482 5.045974 -21.337321 0
M  V30 11 O 13.620897 1.573687 -17.742244 0
M  V30 12 C 8.094912 5.833699 -19.813663 0
M  V30 13 C 14.461521 2.404358 -16.879420 0
M  V30 14 C 7.179045 5.455670 -18.653201 0
M  V30 15 O 11.279995 0.169104 -18.615516 0
M  V30 16 C 12.068918 2.865050 -20.859277 0
M  V30 17 O 11.517425 5.036330 -22.504400 0
M  V30 18 C 11.922837 0.515875 -19.827210 0
M  V30 19 C 6.490521 4.085970 -18.762232 0
M  V30 20 C 8.293931 5.111862 -12.054412 0
M  V30 21 C 14.597358 3.844901 -17.498809 0
M  V30 22 O 9.109045 1.825289 -17.091529 0
M  V30 23 C 6.485182 6.814198 -15.153953 0
M  V30 24 C 9.418535 4.955769 -9.087712 0
M  V30 25 C 5.683978 4.848783 -13.625101 0 CFG=1
M  V30 26 O 12.390527 2.666262 -22.032710 0
M  V30 27 C 10.476112 5.458658 -18.556582 0 CFG=2
M  V30 28 N 7.926070 5.749381 -10.929005 0
M  V30 29 C 4.596554 6.358981 -16.788702 0 CFG=2
M  V30 30 C 9.443170 3.086571 -19.119255 0
M  V30 31 C 7.102598 2.866558 -18.015681 0 CFG=1
M  V30 32 O 4.279856 6.620423 -18.165610 0
M  V30 33 C 6.640591 1.552400 -18.676008 0
M  V30 34 C 6.954845 6.307678 -17.633492 0
M  V30 35 C 6.598344 6.090114 -13.774512 0 CFG=1
M  V30 36 C 10.695419 4.021542 -19.071738 0 CFG=1
M  V30 37 C 10.375343 6.314234 -20.815938 0 CFG=2
M  V30 38 C 13.242148 2.386475 -18.761062 0
M  V30 39 C 7.989240 5.126814 -9.606246 0
M  V30 40 C 4.209529 7.730940 -17.261892 0
M  V30 41 C 6.047012 6.031124 -16.438352 0 CFG=1
M  V30 42 C 8.629434 2.937828 -17.817889 0 CFG=1
M  V30 43 C 8.087934 5.865268 -13.373801 0
M  V30 44 H 9.285788 5.768661 -16.704008 0
M  V30 45 H 10.764882 4.855287 -16.464539 0
M  V30 46 H 10.834342 6.569207 -16.711718 0
M  V30 47 H 9.519471 7.271444 -19.107060 0
M  V30 48 H 13.614346 4.353872 -19.299978 0
M  V30 49 H 6.094795 4.802044 -11.731639 0
M  V30 50 H 7.611100 6.699514 -20.266254 0
M  V30 51 H 8.043982 5.108921 -20.621873 0
M  V30 52 H 14.011049 2.463748 -15.892304 0
M  V30 53 H 15.436049 1.933357 -16.763723 0
M  V30 54 H 11.875776 0.367095 -17.904042 0
M  V30 55 H 12.764002 -0.153750 -20.007799 0
M  V30 56 H 11.219845 0.385110 -20.651363 0
M  V30 57 H 5.450301 4.207004 -18.467065 0
M  V30 58 H 6.415698 3.847941 -19.823460 0
M  V30 59 H 14.179634 4.622650 -16.857476 0
M  V30 60 H 15.619860 4.093329 -17.784258 0
M  V30 61 H 9.170555 1.081612 -17.675477 0
M  V30 62 H 7.434690 7.308671 -15.331901 0
M  V30 63 H 5.797903 7.651042 -15.021548 0
M  V30 64 H 9.413817 4.651667 -8.041452 0
M  V30 65 H 9.923586 4.175563 -9.650879 0
M  V30 66 H 9.990859 5.880670 -9.165699 0
M  V30 67 H 4.731160 5.046206 -14.109839 0
M  V30 68 H 11.469378 5.901153 -18.668502 0
M  V30 69 H 7.554072 6.692577 -10.982695 0
M  V30 70 H 3.831808 5.772441 -16.291955 0
M  V30 71 H 9.732619 2.087356 -19.429688 0
M  V30 72 H 8.799048 3.355898 -19.943958 0
M  V30 73 H 6.677703 2.861085 -17.011732 0
M  V30 74 H 7.055527 1.438540 -19.677667 0
M  V30 75 H 6.935832 0.680394 -18.092896 0
M  V30 76 H 5.554179 1.520766 -18.764232 0
M  V30 77 H 7.434839 7.260488 -17.653793 0
M  V30 78 H 6.217977 6.821780 -13.058764 0
M  V30 79 H 11.282372 3.607566 -18.267762 0
M  V30 80 H 11.169156 7.049571 -20.674371 0
M  V30 81 H 7.446095 5.766770 -8.911991 0
M  V30 82 H 7.458104 4.173097 -9.609385 0
M  V30 83 H 3.205718 8.095569 -17.049905 0
M  V30 84 H 5.009699 8.463383 -17.367964 0
M  V30 85 H 6.143357 4.970387 -16.250161 0
M  V30 86 H 8.779179 3.772747 -17.154383 0
M  V30 87 H 8.597589 5.309986 -14.162506 0
M  V30 88 H 8.597208 6.824561 -13.292993 0
M  V30 END ATOM
M  V30 BEGIN BOND
M  V30 1 1 10 4
M  V30 2 1 12 3
M  V30 3 1 13 11
M  V30 4 1 14 12
M  V30 5 1 16 4
M  V30 6 1 16 5
M  V30 7 2 17 10
M  V30 8 1 18 5
M  V30 9 1 18 15
M  V30 10 1 19 14
M  V30 11 2 20 7
M  V30 12 1 21 8
M  V30 13 1 21 13
M  V30 14 1 25 2
M  V30 15 1 25 9
M  V30 16 2 26 16
M  V30 17 1 27 1
M  V30 18 1 27 3
M  V30 19 1 28 20
M  V30 20 1 31 19
M  V30 21 1 32 29
M  V30 22 1 33 31
M  V30 23 2 34 14
M  V30 24 1 35 23
M  V30 25 1 35 25
M  V30 26 1 36 4
M  V30 27 1 36 27
M  V30 28 1 36 30
M  V30 29 1 37 3
M  V30 30 1 37 6
M  V30 31 1 37 10
M  V30 32 2 38 5
M  V30 33 1 38 8
M  V30 34 1 38 11
M  V30 35 1 39 24
M  V30 36 1 39 28
M  V30 37 1 40 29
M  V30 38 1 40 32
M  V30 39 1 41 23
M  V30 40 1 41 29
M  V30 41 1 41 34
M  V30 42 1 42 22
M  V30 43 1 42 30
M  V30 44 1 42 31
M  V30 45 1 43 20
M  V30 46 1 43 35
M  V30 47 1 44 1
M  V30 48 1 45 1
M  V30 49 1 46 1
M  V30 50 1 3 47 CFG=1
M  V30 51 1 48 8
M  V30 52 1 49 9
M  V30 53 1 50 12
M  V30 54 1 51 12
M  V30 55 1 52 13
M  V30 56 1 53 13
M  V30 57 1 54 15
M  V30 58 1 55 18
M  V30 59 1 56 18
M  V30 60 1 57 19
M  V30 61 1 58 19
M  V30 62 1 59 21
M  V30 63 1 60 21
M  V30 64 1 61 22
M  V30 65 1 62 23
M  V30 66 1 63 23
M  V30 67 1 64 24
M  V30 68 1 65 24
M  V30 69 1 66 24
M  V30 70 1 25 67 CFG=3
M  V30 71 1 27 68 CFG=3
M  V30 72 1 69 28
M  V30 73 1 29 70 CFG=1
M  V30 74 1 71 30
M  V30 75 1 72 30
M  V30 76 1 31 73 CFG=1
M  V30 77 1 74 33
M  V30 78 1 75 33
M  V30 79 1 76 33
M  V30 80 1 77 34
M  V30 81 1 35 78 CFG=1
M  V30 82 1 36 79 CFG=1
M  V30 83 1 37 80 CFG=1
M  V30 84 1 81 39
M  V30 85 1 82 39
M  V30 86 1 83 40
M  V30 87 1 84 40
M  V30 88 1 41 85 CFG=1
M  V30 89 1 42 86 CFG=1
M  V30 90 1 87 43
M  V30 91 1 88 43
M  V30 END BOND
M  V30 END CTAB
M  END
>  <i_epik_Tot_Q>  (1) 
0

>  <i_epik_Tot_abs_Q>  (1) 
0

>  <i_i_glide_confnum>  (1) 
1522

>  <i_i_glide_lignum>  (1) 
129

>  <i_i_glide_posenum>  (1) 
50

>  <i_i_glide_rotatable_bonds>  (1) 
15

>  <i_lp_mmshare_version>  (1) 
72125

>  <i_m_source_file_index>  (1) 
67

>  <i_f3d_flags>  (1) 
0

>  <num_sample>  (1) 
100

>  <b_lp_Chiralities_Consistent>  (1) 
1

>  <r_epik_Charging_Adjusted_Penalty>  (1) 
0.011224841026204068

>  <r_epik_Ionization_Penalty>  (1) 
0.011270599783865109

>  <r_epik_Ionization_Penalty_Charging>  (1) 
8.5422756824624084e-11

>  <r_epik_Ionization_Penalty_Neutral>  (1) 
0.011270599698442352

>  <r_epik_State_Penalty>  (1) 
0.01122484094078131

>  <r_glide_ring_energy>  (1) 
0

>  <r_i_docking_score>  (1) 
-3.583420070325456

>  <r_i_glide_ecoul>  (1) 
-2.4044787298323622

>  <r_i_glide_eff_state_penalty>  (1) 
0.01122484094078131

>  <r_i_glide_einternal>  (1) 
24.709798366005622

>  <r_i_glide_emodel>  (1) 
-19.6449608953011

>  <r_i_glide_emodel_strain>  (1) 
2.0784149174470485

>  <r_i_glide_energy>  (1) 
-29.40812864075745

>  <r_i_glide_erotb>  (1) 
0.43215163049877869

>  <r_i_glide_esite>  (1) 
-0.094026655192148853

>  <r_i_glide_evdw>  (1) 
-27.003649910925088

>  <r_i_glide_gscore>  (1) 
-3.5946449112662373

>  <r_i_glide_gscore_strain>  (1) 
0

>  <r_i_glide_hbond>  (1) 
-0.08503761348611015

>  <r_i_glide_ligand_efficiency>  (1) 
-0.083335350472685019

>  <r_i_glide_ligand_efficiency_ln>  (1) 
-0.75262958566140015

>  <r_i_glide_ligand_efficiency_sa>  (1) 
-0.29195690520765266

>  <r_i_glide_lipo>  (1) 
-1.8384058059575377

>  <r_i_glide_metal>  (1) 
-0

>  <r_i_glide_rewards>  (1) 
-0.29847216210811089

>  <r_lp_Energy>  (1) 
54.897804999999998

>  <r_lp_tautomer_probability>  (1) 
0.49997499999946832

>  <s_epik_Chemistry_Notes>  (1) 
This compound has an imine and may undergo hydrolysis.

>  <s_epik_cmdline>  (1) 
J2VwaWtfcHl0aG9uJywgJy1waHQnLCAnMS4wJywgJy1waCcsICc3LjQnLCAnLXRuJywgJzgnLCAnLW1hJywgJzUwMCcsICctaW1hZScsICc8aW5maWxlLm1hZT4nLCAnLW9tYWUnLCAnPG91dGZpbGUubWFlPic=

>  <s_epik_input>  (1) 
TzFbQ0gyXVtDSDJdTj1DMVtDQEhdKFtDSDJdW09IXSlDKD1PKU4oQyg9TylbQ0BIXTJGKVtDQEBIXShbQ0BASF0zW0NIM10pW0NIMl1bQ0BIXShbT0hdKVtDQEhdKFtDSDNdKVtDSDJdQyhcW0NIMl1bQ0BIXTIzKT1bQ0hdL1tDQEhdKFtDQEBIXTRPW0NIMl00KVtDSDJdW0NAQEhdKFtDQEBIXShGKVtPSF0pW0NIMl1DKD1PKVtOSF1bQ0gyXVtDSDNd

>  <s_glide_docking_method>  (1) 
confgen

>  <s_i_glide_gridfile>  (1) 
gpcr_drd2_6luq_protein_autoprepared_prepared

>  <s_lp_Force_Field>  (1) 
S-OPLS

>  <s_lp_Variant>  (1) 
DiffSBDD_66_num_sample_100-1

>  <s_m_source_file>  (1) 
generated__ligand_DiffSBDD_2026-05-06_prepared.sdf

>  <GenAI_Model>  (1) 
DiffSBDD

>  <Protein>  (1) 
generic_title2

$$$$
DiffSBDD_49_num_sample_100
     RDKit          3D

  0  0  0  0  0  0  0  0  0  0999 V3000
M  V30 BEGIN CTAB
M  V30 COUNTS 52 55 0 0 1
M  V30 BEGIN ATOM
M  V30 1 N 6.377156 -4.674823 -18.946859 0
M  V30 2 C 9.283295 -7.181962 -21.901915 0
M  V30 3 C 6.915612 -7.003330 -22.459909 0
M  V30 4 C 2.985433 -6.238877 -17.400603 0
M  V30 5 C 6.699262 -0.177858 -19.414552 0
M  V30 6 S 7.034834 -6.975335 -17.709263 0
M  V30 7 C 9.027059 -6.630691 -20.631739 0
M  V30 8 C 4.773614 -1.703405 -18.671449 0 CFG=1
M  V30 9 C 7.447103 -5.653016 -18.895723 0 CFG=1
M  V30 10 C 4.290362 -7.053392 -17.434011 0
M  V30 11 C 3.948058 -2.978015 -19.007154 0
M  V30 12 C 5.429331 -4.981755 -18.170703 0
M  V30 13 C 7.333293 -0.274193 -18.014228 0 CFG=2
M  V30 14 O 9.034845 -1.430703 -16.691666 0
M  V30 15 C 4.112079 -4.225255 -18.109653 0 CFG=2
M  V30 16 C 8.407479 -1.385004 -17.952390 0
M  V30 17 C 7.716103 -6.259707 -20.272295 0
M  V30 18 C 5.346648 -1.665606 -17.231854 0
M  V30 19 C 8.228496 -7.365696 -22.816334 0
M  V30 20 C 5.521853 -6.153125 -17.250104 0 CFG=2
M  V30 21 C 5.844416 -1.412916 -19.747469 0
M  V30 22 N 3.034840 -5.168996 -18.397574 0
M  V30 23 C 6.210255 -0.425439 -16.968542 0
M  V30 24 C 6.656550 -6.452093 -21.190498 0
M  V30 25 H 3.963482 -3.895001 -17.091669 0
M  V30 26 H 10.289663 -7.463015 -22.175375 0
M  V30 27 H 6.106730 -7.146624 -23.161197 0
M  V30 28 H 2.132085 -6.884074 -17.610523 0
M  V30 29 H 2.826357 -5.810886 -16.409124 0
M  V30 30 H 6.073166 0.713753 -19.466473 0
M  V30 31 H 7.472808 -0.047309 -20.172114 0
M  V30 32 H 9.834775 -6.491569 -19.932357 0
M  V30 33 H 4.075859 -0.865905 -18.734475 0
M  V30 34 H 8.354788 -5.160159 -18.543195 0
M  V30 35 H 4.353661 -7.586097 -18.384424 0
M  V30 36 H 4.271214 -7.808487 -16.650176 0
M  V30 37 H 2.905638 -2.687926 -18.888664 0
M  V30 38 H 4.062991 -3.251018 -20.057343 0
M  V30 39 H 7.839586 0.671917 -17.817428 0
M  V30 40 H 8.481145 -1.927803 -16.094035 0
M  V30 41 H 9.173854 -1.197024 -18.704691 0
M  V30 42 H 7.996048 -2.370967 -18.164562 0
M  V30 43 H 4.532111 -1.693351 -16.507603 0
M  V30 44 H 5.958094 -2.542679 -17.031583 0
M  V30 45 H 8.426271 -7.784828 -23.791227 0
M  V30 46 H 5.356962 -1.257691 -20.710888 0
M  V30 47 H 6.494334 -2.273285 -19.887506 0
M  V30 48 H 6.626125 -0.470470 -15.961535 0
M  V30 49 H 5.575753 0.461542 -16.989675 0
M  V30 50 H 5.647664 -6.174290 -20.921667 0
M  V30 51 H 2.141549 -4.673087 -18.349313 0
M  V30 52 H 5.592640 -5.791270 -16.223691 0
M  V30 END ATOM
M  V30 BEGIN BOND
M  V30 1 1 7 2
M  V30 2 1 9 1
M  V30 3 1 9 6
M  V30 4 1 10 4
M  V30 5 1 11 8
M  V30 6 2 12 1
M  V30 7 1 13 5
M  V30 8 1 15 11
M  V30 9 1 15 12
M  V30 10 1 16 13
M  V30 11 1 16 14
M  V30 12 2 17 7
M  V30 13 1 17 9
M  V30 14 1 18 8
M  V30 15 2 19 2
M  V30 16 1 19 3
M  V30 17 1 20 6
M  V30 18 1 20 10
M  V30 19 1 20 12
M  V30 20 1 21 5
M  V30 21 1 21 8
M  V30 22 1 22 4
M  V30 23 1 22 15
M  V30 24 1 23 13
M  V30 25 1 23 18
M  V30 26 2 24 3
M  V30 27 1 24 17
M  V30 28 1 15 25 CFG=1
M  V30 29 1 26 2
M  V30 30 1 27 3
M  V30 31 1 28 4
M  V30 32 1 29 4
M  V30 33 1 30 5
M  V30 34 1 31 5
M  V30 35 1 32 7
M  V30 36 1 8 33 CFG=1
M  V30 37 1 9 34 CFG=1
M  V30 38 1 35 10
M  V30 39 1 36 10
M  V30 40 1 37 11
M  V30 41 1 38 11
M  V30 42 1 13 39 CFG=1
M  V30 43 1 40 14
M  V30 44 1 41 16
M  V30 45 1 42 16
M  V30 46 1 43 18
M  V30 47 1 44 18
M  V30 48 1 45 19
M  V30 49 1 46 21
M  V30 50 1 47 21
M  V30 51 1 48 23
M  V30 52 1 49 23
M  V30 53 1 50 24
M  V30 54 1 51 22
M  V30 55 1 20 52 CFG=1
M  V30 END BOND
M  V30 END CTAB
M  END
>  <i_epik_Tot_Q>  (1) 
0

>  <i_epik_Tot_abs_Q>  (1) 
0

>  <i_i_glide_confnum>  (1) 
109

>  <i_i_glide_lignum>  (1) 
91

>  <i_i_glide_posenum>  (1) 
384

>  <i_i_glide_rotatable_bonds>  (1) 
5

>  <i_lp_mmshare_version>  (1) 
72125

>  <i_m_source_file_index>  (1) 
50

>  <i_f3d_flags>  (1) 
0

>  <num_sample>  (1) 
100

>  <b_lp_Chiralities_Consistent>  (1) 
1

>  <r_epik_Charging_Adjusted_Penalty>  (1) 
0.1447540794995397

>  <r_epik_Ionization_Penalty>  (1) 
0.14481163516182699

>  <r_epik_Ionization_Penalty_Charging>  (1) 
0

>  <r_epik_Ionization_Penalty_Neutral>  (1) 
0.14481163516182699

>  <r_epik_State_Penalty>  (1) 
0.1447540794995397

>  <r_glide_ring_energy>  (1) 
0

>  <r_i_docking_score>  (1) 
-3.5764443268528754

>  <r_i_glide_ecoul>  (1) 
-9.2730861503640369

>  <r_i_glide_eff_state_penalty>  (1) 
0.1447540794995397

>  <r_i_glide_einternal>  (1) 
3.0730426890336968

>  <r_i_glide_emodel>  (1) 
-31.40105039539246

>  <r_i_glide_emodel_strain>  (1) 
0.20060049467422658

>  <r_i_glide_energy>  (1) 
-25.782412039498421

>  <r_i_glide_erotb>  (1) 
0.63990235469448886

>  <r_i_glide_esite>  (1) 
-0.032494491242611133

>  <r_i_glide_evdw>  (1) 
-16.509325889134384

>  <r_i_glide_gscore>  (1) 
-3.7211984063524151

>  <r_i_glide_gscore_strain>  (1) 
0

>  <r_i_glide_hbond>  (1) 
-0.60799999999999998

>  <r_i_glide_ligand_efficiency>  (1) 
-0.14901851361886981

>  <r_i_glide_ligand_efficiency_ln>  (1) 
-0.85600723975234938

>  <r_i_glide_ligand_efficiency_sa>  (1) 
-0.42984377446932731

>  <r_i_glide_lipo>  (1) 
-0.44410632552023982

>  <r_i_glide_metal>  (1) 
-0

>  <r_i_glide_rewards>  (1) 
-1.0600707272727279

>  <r_lp_Energy>  (1) 
26.842413999999998

>  <r_lp_tautomer_probability>  (1) 
0.99998399999999998

>  <s_epik_Chemistry_Notes>  (1) 
This compound has an imine and may undergo hydrolysis. This compound contains an acetal/aminal-like group ( X-CH(R)-Y where X, Y are N, S, or O) that may be acid/base labile, releasing an aldehyde.

>  <s_epik_cmdline>  (1) 
J2VwaWtfcHl0aG9uJywgJy1waHQnLCAnMS4wJywgJy1waCcsICc3LjQnLCAnLXRuJywgJzgnLCAnLW1hJywgJzUwMCcsICctaW1hZScsICc8aW5maWxlLm1hZT4nLCAnLW9tYWUnLCAnPG91dGZpbGUubWFlPic=

>  <s_epik_input>  (1) 
W2NIXTFbY0hdW2NIXVtjSF1bY0hdYzFbQ0BASF0oW05IXTIpU1tDQEBIXShbQ0BIXTIzKVtDSDJdW0NIMl1OPUMzW0NIMl1bQ0BIXTRbQ0gyXVtDSDJdW0NASF0oW0NIMl1bQ0gyXTQpW0NIMl1bT0hd

>  <s_glide_docking_method>  (1) 
confgen

>  <s_i_glide_gridfile>  (1) 
gpcr_drd2_6luq_protein_autoprepared_prepared

>  <s_lp_Force_Field>  (1) 
S-OPLS

>  <s_lp_Variant>  (1) 
DiffSBDD_49_num_sample_100-1

>  <s_m_source_file>  (1) 
generated__ligand_DiffSBDD_2026-05-06_prepared.sdf

>  <GenAI_Model>  (1) 
DiffSBDD

>  <Protein>  (1) 
generic_title2

$$$$
DiffSBDD_11_num_sample_100
     RDKit          3D

  0  0  0  0  0  0  0  0  0  0999 V3000
M  V30 BEGIN CTAB
M  V30 COUNTS 56 58 0 0 1
M  V30 BEGIN ATOM
M  V30 1 C 5.480314 6.048993 -17.268283 0 CFG=1
M  V30 2 C 9.758472 7.207802 -9.599733 0 CFG=2
M  V30 3 N 5.815840 6.445388 -19.671633 0
M  V30 4 C 8.781911 4.748492 -11.100695 0 CFG=1
M  V30 5 O 4.926421 6.719506 -21.726643 0
M  V30 6 C 3.993838 6.468711 -17.172402 0
M  V30 7 S 8.099809 4.969365 -9.437309 0
M  V30 8 O 11.435590 9.243106 -6.887141 0
M  V30 9 O 10.234919 6.628350 -10.797513 0
M  V30 10 C 7.778322 4.008603 -11.997458 0
M  V30 11 C 7.542387 5.440739 -15.703945 0
M  V30 12 C 9.214438 6.244129 -7.332859 0
M  V30 13 C 10.921070 7.931387 -8.891959 0
M  V30 14 C 7.267452 4.495453 -13.368436 0
M  V30 15 C 5.836727 4.110544 -13.642003 0
M  V30 16 C 5.205844 7.179802 -20.623473 0
M  V30 17 C 9.090639 6.198713 -8.671692 0
M  V30 18 C 6.153479 6.941515 -18.330477 0
M  V30 19 C 8.077017 5.084365 -14.321938 0
M  V30 20 C 4.857566 8.631227 -20.291786 0
M  V30 21 Cl 11.433158 6.569621 -5.778775 0
M  V30 22 C 9.281307 6.040003 -11.675914 0 CFG=1
M  V30 23 C 6.123129 6.078789 -15.849934 0
M  V30 24 C 10.021596 7.291430 -6.590904 0 CFG=1
M  V30 25 C 10.450065 8.444266 -7.518249 0 CFG=1
M  V30 26 O 8.231997 5.307828 -16.715006 0
M  V30 27 C 10.031000 5.768141 -12.944531 0
M  V30 28 C 9.487660 5.369337 -14.110238 0
M  V30 29 H 5.543476 5.025556 -17.640363 0
M  V30 30 H 9.035064 7.967393 -9.878703 0
M  V30 31 H 6.049938 5.486642 -19.882155 0
M  V30 32 H 9.644269 4.095409 -10.962473 0
M  V30 33 H 3.889710 7.453330 -16.712098 0
M  V30 34 H 3.398139 5.769931 -16.589802 0
M  V30 35 H 3.522792 6.537146 -18.152833 0
M  V30 36 H 12.118026 8.665247 -6.579105 0
M  V30 37 H 8.193943 3.020898 -12.204116 0
M  V30 38 H 6.894456 3.806086 -11.391005 0
M  V30 39 H 8.707232 5.512916 -6.727429 0
M  V30 40 H 11.769780 7.255920 -8.775971 0
M  V30 41 H 11.262926 8.759864 -9.512412 0
M  V30 42 H 5.125298 4.900333 -13.400142 0
M  V30 43 H 5.548164 3.233705 -13.064271 0
M  V30 44 H 5.832567 3.771425 -14.674798 0
M  V30 45 H 5.834821 7.956086 -18.125043 0
M  V30 46 H 7.238312 6.941879 -18.247833 0
M  V30 47 H 4.117538 8.672807 -19.493390 0
M  V30 48 H 4.416643 9.116569 -21.160787 0
M  V30 49 H 5.744132 9.198149 -20.005321 0
M  V30 50 H 8.467395 6.741465 -11.868368 0
M  V30 51 H 6.248631 7.125518 -15.572682 0
M  V30 52 H 5.368357 5.732465 -15.171016 0
M  V30 53 H 9.389580 7.691660 -5.799672 0
M  V30 54 H 9.567606 9.062032 -7.684663 0
M  V30 55 H 11.089682 5.966290 -12.911891 0
M  V30 56 H 10.148392 5.291785 -14.961778 0
M  V30 END ATOM
M  V30 BEGIN BOND
M  V30 1 1 6 1
M  V30 2 1 7 4
M  V30 3 1 9 2
M  V30 4 1 10 4
M  V30 5 1 13 2
M  V30 6 1 14 10
M  V30 7 1 15 14
M  V30 8 1 16 3
M  V30 9 2 16 5
M  V30 10 1 17 2
M  V30 11 1 17 7
M  V30 12 2 17 12
M  V30 13 1 18 1
M  V30 14 1 18 3
M  V30 15 1 19 11
M  V30 16 2 19 14
M  V30 17 1 20 16
M  V30 18 1 22 4
M  V30 19 1 22 9
M  V30 20 1 23 1
M  V30 21 1 23 11
M  V30 22 1 24 12
M  V30 23 1 24 21
M  V30 24 1 25 8
M  V30 25 1 25 13
M  V30 26 1 25 24
M  V30 27 2 26 11
M  V30 28 1 27 22
M  V30 29 1 28 19
M  V30 30 2 28 27
M  V30 31 1 1 29 CFG=3
M  V30 32 1 2 30 CFG=3
M  V30 33 1 31 3
M  V30 34 1 4 32 CFG=1
M  V30 35 1 33 6
M  V30 36 1 34 6
M  V30 37 1 35 6
M  V30 38 1 36 8
M  V30 39 1 37 10
M  V30 40 1 38 10
M  V30 41 1 39 12
M  V30 42 1 40 13
M  V30 43 1 41 13
M  V30 44 1 42 15
M  V30 45 1 43 15
M  V30 46 1 44 15
M  V30 47 1 45 18
M  V30 48 1 46 18
M  V30 49 1 47 20
M  V30 50 1 48 20
M  V30 51 1 49 20
M  V30 52 1 22 50 CFG=3
M  V30 53 1 51 23
M  V30 54 1 52 23
M  V30 55 1 24 53 CFG=1
M  V30 56 1 25 54 CFG=3
M  V30 57 1 55 27
M  V30 58 1 56 28
M  V30 END BOND
M  V30 END CTAB
M  END
>  <i_epik_Tot_Q>  (1) 
0

>  <i_epik_Tot_abs_Q>  (1) 
0

>  <i_i_glide_confnum>  (1) 
214

>  <i_i_glide_lignum>  (1) 
19

>  <i_i_glide_posenum>  (1) 
86

>  <i_i_glide_rotatable_bonds>  (1) 
7

>  <i_lp_mmshare_version>  (1) 
72125

>  <i_m_source_file_index>  (1) 
12

>  <i_f3d_flags>  (1) 
0

>  <num_sample>  (1) 
100

>  <b_lp_Chiralities_Consistent>  (1) 
1

>  <r_epik_Charging_Adjusted_Penalty>  (1) 
0

>  <r_epik_Ionization_Penalty>  (1) 
0.000136015572717869

>  <r_epik_Ionization_Penalty_Charging>  (1) 
0

>  <r_epik_Ionization_Penalty_Neutral>  (1) 
0.000136015572717869

>  <r_epik_State_Penalty>  (1) 
-0

>  <r_glide_ring_energy>  (1) 
0

>  <r_i_docking_score>  (1) 
-3.5712704800126587

>  <r_i_glide_ecoul>  (1) 
-1.7590007729030441

>  <r_i_glide_eff_state_penalty>  (1) 
-0

>  <r_i_glide_einternal>  (1) 
8.7128387511839627

>  <r_i_glide_emodel>  (1) 
-26.136292448991135

>  <r_i_glide_emodel_strain>  (1) 
3.6187017659358958

>  <r_i_glide_energy>  (1) 
-29.980609002840403

>  <r_i_glide_erotb>  (1) 
0.5467392007768872

>  <r_i_glide_esite>  (1) 
0

>  <r_i_glide_evdw>  (1) 
-28.22160822993736

>  <r_i_glide_gscore>  (1) 
-3.5712704800126587

>  <r_i_glide_gscore_strain>  (1) 
0

>  <r_i_glide_hbond>  (1) 
0

>  <r_i_glide_ligand_efficiency>  (1) 
-0.12754537428616639

>  <r_i_glide_ligand_efficiency_ln>  (1) 
-0.82435408384453857

>  <r_i_glide_ligand_efficiency_sa>  (1) 
-0.38730287697112659

>  <r_i_glide_lipo>  (1) 
-2.1036098938115555

>  <r_i_glide_metal>  (1) 
-0

>  <r_i_glide_rewards>  (1) 
-0.33946925954566542

>  <r_lp_Energy>  (1) 
20.078344999999999

>  <r_lp_tautomer_probability>  (1) 
1

>  <s_epik_cmdline>  (1) 
J2VwaWtfcHl0aG9uJywgJy1waHQnLCAnMS4wJywgJy1waCcsICc3LjQnLCAnLXRuJywgJzgnLCAnLW1hJywgJzUwMCcsICctaW1hZScsICc8aW5maWxlLm1hZT4nLCAnLW9tYWUnLCAnPG91dGZpbGUubWFlPic=

>  <s_epik_input>  (1) 
Tz1DKFtDSDNdKVtOSF1bQ0gyXVtDQEhdKFtDSDNdKVtDSDJdQyg9TylDKD1DKFtDSDJdMSlbQ0gzXSlbQ0hdPVtDSF1bQ0BIXShPMilbQ0BIXTFTQyhbQ0BASF0yMyk9W0NIXVtDQEBIXShDbClbQ0BASF0oW09IXSlbQ0gyXTM=

>  <s_glide_docking_method>  (1) 
confgen

>  <s_i_glide_gridfile>  (1) 
gpcr_drd2_6luq_protein_autoprepared_prepared

>  <s_lp_Force_Field>  (1) 
S-OPLS

>  <s_lp_Variant>  (1) 
DiffSBDD_11_num_sample_100-2

>  <s_m_source_file>  (1) 
generated__ligand_DiffSBDD_2026-05-06_prepared.sdf

>  <GenAI_Model>  (1) 
DiffSBDD

>  <Protein>  (1) 
generic_title2

$$$$
DiffSBDD_15_num_sample_100
     RDKit          3D

  0  0  0  0  0  0  0  0  0  0999 V3000
M  V30 BEGIN CTAB
M  V30 COUNTS 48 51 0 0 1
M  V30 BEGIN ATOM
M  V30 1 C 7.708882 3.423984 -14.706109 0
M  V30 2 C 5.434839 6.411484 -12.046792 0
M  V30 3 C 6.404242 3.445036 -12.611301 0
M  V30 4 C 11.189945 3.532654 -19.870186 0
M  V30 5 C 7.939367 5.322978 -16.194130 0
M  V30 6 C 8.234837 3.988215 -15.880945 0
M  V30 7 C 5.852329 5.369301 -11.091667 0
M  V30 8 C 9.104134 3.168856 -16.761213 0
M  V30 9 C 12.701016 3.631520 -19.598384 0
M  V30 10 C 5.921387 3.943739 -11.468371 0
M  V30 11 C 13.087590 0.169301 -17.905959 0
M  V30 12 C 7.141384 6.092795 -15.341010 0
M  V30 13 C 13.293261 2.242836 -19.272756 0 CFG=2
M  V30 14 C 6.913006 4.180158 -13.807599 0
M  V30 15 C 5.789405 6.502701 -13.331007 0
M  V30 16 F 15.459979 2.802593 -19.946102 0
M  V30 17 C 12.495479 1.563089 -18.137394 0 CFG=1
M  V30 18 N 10.533913 2.903409 -18.732279 0
M  V30 19 C 14.589294 0.281706 -17.602189 0
M  V30 20 C 9.691625 3.630010 -17.888846 0
M  V30 21 F 14.999630 3.071629 -17.861552 0
M  V30 22 C 6.625966 5.567525 -14.136070 0
M  V30 23 O 15.257309 0.948255 -18.670179 0
M  V30 24 C 14.798396 2.277470 -18.915625 0
M  V30 25 C 10.984556 1.540145 -18.448115 0
M  V30 26 H 7.929233 2.391781 -14.474265 0
M  V30 27 H 4.826915 7.201153 -11.627747 0
M  V30 28 H 6.445107 2.368287 -12.692747 0
M  V30 29 H 11.002853 2.937135 -20.764555 0
M  V30 30 H 10.775390 4.523135 -20.061204 0
M  V30 31 H 8.326304 5.769301 -17.093590 0
M  V30 32 H 6.796693 5.666745 -10.634453 0
M  V30 33 H 5.115111 5.418524 -10.291667 0
M  V30 34 H 9.265774 2.149618 -16.454281 0
M  V30 35 H 13.203739 4.065681 -20.463074 0
M  V30 36 H 12.872137 4.313777 -18.764602 0
M  V30 37 H 5.601457 3.251453 -10.702906 0
M  V30 38 H 12.946908 -0.449198 -18.792214 0
M  V30 39 H 12.569845 -0.333674 -17.091667 0
M  V30 40 H 6.926694 7.117635 -15.605633 0
M  V30 41 H 13.185835 1.630554 -20.169768 0
M  V30 42 H 5.441454 7.372191 -13.868696 0
M  V30 43 H 12.628320 2.142306 -17.221156 0
M  V30 44 H 15.020838 -0.712549 -17.491669 0
M  V30 45 H 14.758880 0.807698 -16.661471 0
M  V30 46 H 9.545378 4.643382 -18.221728 0
M  V30 47 H 10.442680 1.054081 -17.641570 0
M  V30 48 H 10.800492 0.930327 -19.333489 0
M  V30 END ATOM
M  V30 BEGIN BOND
M  V30 1 2 6 1
M  V30 2 1 6 5
M  V30 3 1 7 2
M  V30 4 1 8 6
M  V30 5 1 9 4
M  V30 6 2 10 3
M  V30 7 1 10 7
M  V30 8 2 12 5
M  V30 9 1 13 9
M  V30 10 1 14 1
M  V30 11 1 14 3
M  V30 12 2 15 2
M  V30 13 1 17 11
M  V30 14 1 17 13
M  V30 15 1 18 4
M  V30 16 1 19 11
M  V30 17 2 20 8
M  V30 18 1 20 18
M  V30 19 1 22 12
M  V30 20 2 22 14
M  V30 21 1 22 15
M  V30 22 1 23 19
M  V30 23 1 24 13
M  V30 24 1 24 16
M  V30 25 1 24 21
M  V30 26 1 24 23
M  V30 27 1 25 17
M  V30 28 1 25 18
M  V30 29 1 26 1
M  V30 30 1 27 2
M  V30 31 1 28 3
M  V30 32 1 29 4
M  V30 33 1 30 4
M  V30 34 1 31 5
M  V30 35 1 32 7
M  V30 36 1 33 7
M  V30 37 1 34 8
M  V30 38 1 35 9
M  V30 39 1 36 9
M  V30 40 1 37 10
M  V30 41 1 38 11
M  V30 42 1 39 11
M  V30 43 1 40 12
M  V30 44 1 13 41 CFG=3
M  V30 45 1 42 15
M  V30 46 1 17 43 CFG=1
M  V30 47 1 44 19
M  V30 48 1 45 19
M  V30 49 1 46 20
M  V30 50 1 47 25
M  V30 51 1 48 25
M  V30 END BOND
M  V30 END CTAB
M  END
>  <i_epik_Tot_Q>  (1) 
0

>  <i_epik_Tot_abs_Q>  (1) 
0

>  <i_i_glide_confnum>  (1) 
6

>  <i_i_glide_lignum>  (1) 
24

>  <i_i_glide_posenum>  (1) 
153

>  <i_i_glide_rotatable_bonds>  (1) 
2

>  <i_lp_mmshare_version>  (1) 
72125

>  <i_m_source_file_index>  (1) 
16

>  <i_f3d_flags>  (1) 
0

>  <num_sample>  (1) 
100

>  <b_lp_Chiralities_Consistent>  (1) 
1

>  <r_epik_Charging_Adjusted_Penalty>  (1) 
0.41067983895260396

>  <r_epik_Ionization_Penalty>  (1) 
0.00043588865487499098

>  <r_epik_Ionization_Penalty_Charging>  (1) 
0

>  <r_epik_Ionization_Penalty_Neutral>  (1) 
0.00043588865487499098

>  <r_epik_State_Penalty>  (1) 
0.41067983895260396

>  <r_glide_ring_energy>  (1) 
0.00060441860772535985

>  <r_i_docking_score>  (1) 
-3.5706749525589467

>  <r_i_glide_ecoul>  (1) 
-0.82954102894895421

>  <r_i_glide_eff_state_penalty>  (1) 
0.41067983895260396

>  <r_i_glide_einternal>  (1) 
0.77337214904742568

>  <r_i_glide_emodel>  (1) 
-31.336145448723055

>  <r_i_glide_emodel_strain>  (1) 
0

>  <r_i_glide_energy>  (1) 
-25.808912730569844

>  <r_i_glide_erotb>  (1) 
0.32177656458331499

>  <r_i_glide_esite>  (1) 
-0.012778259484183766

>  <r_i_glide_evdw>  (1) 
-24.979371701620892

>  <r_i_glide_gscore>  (1) 
-3.9813547915115506

>  <r_i_glide_gscore_strain>  (1) 
0

>  <r_i_glide_hbond>  (1) 
0

>  <r_i_glide_ligand_efficiency>  (1) 
-0.14282699810235788

>  <r_i_glide_ligand_efficiency_ln>  (1) 
-0.8463569682500659

>  <r_i_glide_ligand_efficiency_sa>  (1) 
-0.41762867594698982

>  <r_i_glide_lipo>  (1) 
-1.5924087419860833

>  <r_i_glide_metal>  (1) 
-0

>  <r_i_glide_rewards>  (1) 
-1.3245446152012108

>  <r_lp_Energy>  (1) 
29.411313

>  <r_lp_tautomer_probability>  (1) 
0.5

>  <s_epik_cmdline>  (1) 
J2VwaWtfcHl0aG9uJywgJy1waHQnLCAnMS4wJywgJy1waCcsICc3LjQnLCAnLXRuJywgJzgnLCAnLW1hJywgJzUwMCcsICctaW1hZScsICc8aW5maWxlLm1hZT4nLCAnLW9tYWUnLCAnPG91dGZpbGUubWFlPic=

>  <s_epik_input>  (1) 
W0NIXTE9W0NIXVtDSDJdW0NIXT1bQ0hdYyhjMTIpW2NIXVtjSF1jKFtjSF0yKS9bQ0hdPVtDSF0vTihbQ0gyXVtDSDJdMylbQ0gyXVtDQEhdKFtDQEBIXTM0KVtDSDJdW0NIMl1PQzQoRilG

>  <s_glide_docking_method>  (1) 
confgen

>  <s_i_glide_gridfile>  (1) 
gpcr_drd2_6luq_protein_autoprepared_prepared

>  <s_lp_Force_Field>  (1) 
S-OPLS

>  <s_lp_Variant>  (1) 
DiffSBDD_15_num_sample_100-1

>  <s_m_source_file>  (1) 
generated__ligand_DiffSBDD_2026-05-06_prepared.sdf

>  <GenAI_Model>  (1) 
DiffSBDD

>  <Protein>  (1) 
generic_title2

$$$$
DiffSBDD_56_num_sample_100
     RDKit          3D

  0  0  0  0  0  0  0  0  0  0999 V3000
M  V30 BEGIN CTAB
M  V30 COUNTS 70 76 0 0 1
M  V30 BEGIN ATOM
M  V30 1 O 11.299763 7.761930 -7.590327 0
M  V30 2 C 9.667274 1.954832 -18.833203 0
M  V30 3 C 13.188689 3.320926 -19.231741 0
M  V30 4 C 10.968505 4.630838 -19.580918 0
M  V30 5 C 8.312529 5.306435 -11.730443 0 CFG=2
M  V30 6 C 9.368154 4.713770 -17.508834 0
M  V30 7 F 8.558042 4.343521 -19.766635 0
M  V30 8 C 9.395950 6.404060 -8.227106 0
M  V30 9 C 7.456543 4.643027 -15.865936 0 CFG=1
M  V30 10 C 10.542245 7.150148 -8.579540 0
M  V30 11 C 8.457589 1.842503 -18.337999 0
M  V30 12 C 8.982474 5.545226 -14.218722 0 CFG=1
M  V30 13 C 6.613836 4.190815 -14.704580 0
M  V30 14 N 9.411637 5.536886 -12.781811 0 CFG=1 CHG=1
M  V30 15 C 11.404182 1.104773 -20.371477 0
M  V30 16 C 9.535129 4.875781 -19.029339 0 CFG=2
M  V30 17 C 10.111717 6.623641 -10.919162 0
M  V30 18 C 12.562478 8.386293 -7.895077 0
M  V30 19 C 12.115460 7.959602 -10.291691 0
M  V30 20 C 10.846685 2.122339 -19.385830 0
M  V30 21 C 8.983185 6.290721 -6.777218 0
M  V30 22 C 10.400354 6.642688 -12.363299 0
M  V30 23 C 10.227648 5.369306 -15.151867 0
M  V30 24 C 12.888503 8.478655 -9.358684 0
M  V30 25 C 10.212986 5.401099 -16.690249 0
M  V30 26 C 10.911870 7.256259 -9.942808 0
M  V30 27 C 12.536716 3.355264 -17.881387 0
M  V30 28 C 8.103327 4.374006 -14.547028 0 CFG=1
M  V30 29 O 12.371573 0.274312 -19.761766 0
M  V30 30 C 8.220564 3.969004 -16.927718 0
M  V30 31 C 9.028458 5.918158 -10.583731 0
M  V30 32 C 8.018082 3.836134 -11.491720 0
M  V30 33 C 7.796906 2.732136 -17.360589 0
M  V30 34 C 8.634825 5.769297 -9.238432 0
M  V30 35 C 11.666242 3.345319 -19.131025 0
M  V30 36 H 13.707729 2.404218 -19.498336 0
M  V30 37 H 13.686012 4.230604 -19.563517 0
M  V30 38 H 10.939261 4.644248 -20.670660 0
M  V30 39 H 11.602629 5.473775 -19.304529 0
M  V30 40 H 7.413925 5.883915 -11.955415 0
M  V30 41 H 7.241336 5.669946 -16.159444 0
M  V30 42 H 7.901807 0.953001 -18.595033 0
M  V30 43 H 8.428433 6.466059 -14.405526 0
M  V30 44 H 6.236167 3.171390 -14.703920 0
M  V30 45 H 5.965733 4.922683 -14.226942 0
M  V30 46 H 11.838015 1.614816 -21.232871 0
M  V30 47 H 10.602066 0.469942 -20.751771 0
M  V30 48 H 9.347377 5.936376 -19.199700 0
M  V30 49 H 12.606332 9.369184 -7.428608 0
M  V30 50 H 13.358459 7.780217 -7.491679 0
M  V30 51 H 12.389469 8.026065 -11.328608 0
M  V30 52 H 8.032812 5.769296 -6.669614 0
M  V30 53 H 9.751400 5.769359 -6.209727 0
M  V30 54 H 8.859315 7.285738 -6.350032 0
M  V30 55 H 11.434815 6.402263 -12.611371 0
M  V30 56 H 10.120088 7.640058 -12.691677 0
M  V30 57 H 10.634835 4.390673 -14.981933 0
M  V30 58 H 11.034839 6.048491 -14.869952 0
M  V30 59 H 13.803116 8.969296 -9.629241 0
M  V30 60 H 10.999241 5.988372 -17.140911 0
M  V30 61 H 12.643723 4.278926 -17.317648 0
M  V30 62 H 12.583079 2.445396 -17.284835 0
M  V30 63 H 8.614207 3.420352 -14.419581 0
M  V30 64 H 11.988303 -0.119253 -18.992830 0
M  V30 65 H 7.338702 3.769304 -10.642295 0
M  V30 66 H 7.517474 3.333221 -12.313807 0
M  V30 67 H 8.944502 3.303800 -11.267522 0
M  V30 68 H 6.908755 2.337649 -16.887912 0
M  V30 69 H 7.755927 5.196641 -8.981539 0
M  V30 70 H 9.975904 4.701891 -12.696519 0
M  V30 END ATOM
M  V30 BEGIN BOND
M  V30 1 1 10 1
M  V30 2 1 10 8
M  V30 3 2 11 2
M  V30 4 1 13 9
M  V30 5 1 14 5
M  V30 6 1 14 12
M  V30 7 1 16 4
M  V30 8 1 16 6
M  V30 9 1 16 7
M  V30 10 1 18 1
M  V30 11 2 20 2
M  V30 12 1 20 15
M  V30 13 1 21 8
M  V30 14 1 22 14
M  V30 15 1 22 17
M  V30 16 1 23 12
M  V30 17 1 24 18
M  V30 18 2 24 19
M  V30 19 2 25 6
M  V30 20 1 25 23
M  V30 21 2 26 10
M  V30 22 1 26 17
M  V30 23 1 26 19
M  V30 24 1 27 3
M  V30 25 1 28 9
M  V30 26 1 28 12
M  V30 27 1 28 13
M  V30 28 1 29 15
M  V30 29 1 30 6
M  V30 30 1 30 9
M  V30 31 1 31 5
M  V30 32 2 31 17
M  V30 33 1 32 5
M  V30 34 1 33 11
M  V30 35 2 33 30
M  V30 36 2 34 8
M  V30 37 1 34 31
M  V30 38 1 35 3
M  V30 39 1 35 4
M  V30 40 1 35 20
M  V30 41 1 35 27
M  V30 42 1 36 3
M  V30 43 1 37 3
M  V30 44 1 38 4
M  V30 45 1 39 4
M  V30 46 1 5 40 CFG=3
M  V30 47 1 9 41 CFG=3
M  V30 48 1 42 11
M  V30 49 1 12 43 CFG=3
M  V30 50 1 44 13
M  V30 51 1 45 13
M  V30 52 1 46 15
M  V30 53 1 47 15
M  V30 54 1 16 48 CFG=1
M  V30 55 1 49 18
M  V30 56 1 50 18
M  V30 57 1 51 19
M  V30 58 1 52 21
M  V30 59 1 53 21
M  V30 60 1 54 21
M  V30 61 1 55 22
M  V30 62 1 56 22
M  V30 63 1 57 23
M  V30 64 1 58 23
M  V30 65 1 59 24
M  V30 66 1 60 25
M  V30 67 1 61 27
M  V30 68 1 62 27
M  V30 69 1 28 63 CFG=3
M  V30 70 1 64 29
M  V30 71 1 65 32
M  V30 72 1 66 32
M  V30 73 1 67 32
M  V30 74 1 68 33
M  V30 75 1 69 34
M  V30 76 1 14 70 CFG=3
M  V30 END BOND
M  V30 END CTAB
M  END
>  <i_epik_Tot_Q>  (1) 
1

>  <i_epik_Tot_abs_Q>  (1) 
1

>  <i_i_glide_confnum>  (1) 
1

>  <i_i_glide_lignum>  (1) 
112

>  <i_i_glide_posenum>  (1) 
309

>  <i_i_glide_rotatable_bonds>  (1) 
3

>  <i_lp_mmshare_version>  (1) 
72125

>  <i_m_source_file_index>  (1) 
57

>  <i_f3d_flags>  (1) 
0

>  <num_sample>  (1) 
100

>  <b_lp_Chiralities_Consistent>  (1) 
1

>  <r_epik_Charging_Adjusted_Penalty>  (1) 
0.14231297848205576

>  <r_epik_Ionization_Penalty>  (1) 
0.071157794031890806

>  <r_epik_Ionization_Penalty_Charging>  (1) 
0.071156489241027923

>  <r_epik_Ionization_Penalty_Neutral>  (1) 
1.3047908628845687e-06

>  <r_epik_State_Penalty>  (1) 
0.071156489241027826

>  <r_glide_ring_energy>  (1) 
0

>  <r_i_docking_score>  (1) 
-3.5673289561478816

>  <r_i_glide_ecoul>  (1) 
-3.2396941662254384

>  <r_i_glide_eff_state_penalty>  (1) 
0.071156489241027826

>  <r_i_glide_einternal>  (1) 
0.35476502146192335

>  <r_i_glide_emodel>  (1) 
-23.634270356957952

>  <r_i_glide_emodel_strain>  (1) 
0.80334542495049277

>  <r_i_glide_energy>  (1) 
-19.555189103595044

>  <r_i_glide_erotb>  (1) 
0.18105195314905365

>  <r_i_glide_esite>  (1) 
0

>  <r_i_glide_evdw>  (1) 
-16.315494937369607

>  <r_i_glide_gscore>  (1) 
-3.6384854453889095

>  <r_i_glide_gscore_strain>  (1) 
0

>  <r_i_glide_hbond>  (1) 
0

>  <r_i_glide_ligand_efficiency>  (1) 
-0.10192368446136804

>  <r_i_glide_ligand_efficiency_ln>  (1) 
-0.7831078784749349

>  <r_i_glide_ligand_efficiency_sa>  (1) 
-0.3333991304518733

>  <r_i_glide_lipo>  (1) 
-1.4292981431938019

>  <r_i_glide_metal>  (1) 
-0

>  <r_i_glide_rewards>  (1) 
-1.0885103835418652

>  <r_lp_Energy>  (1) 
55.302659999999996

>  <s_epik_cmdline>  (1) 
J2VwaWtfcHl0aG9uJywgJy1waHQnLCAnMS4wJywgJy1waCcsICc3LjQnLCAnLXRuJywgJzgnLCAnLW1hJywgJzUwMCcsICctaW1hZScsICc8aW5maWxlLm1hZT4nLCAnLW9tYWUnLCAnPG91dGZpbGUubWFlPic=

>  <s_epik_input>  (1) 
TzFbQ0gyXVtDSF09W0NIXWMoYzEyKWMzYyhbY0hdYzJbQ0gzXSlbQ0BIXShbQ0gzXSlOKFtDSDJdMylbQ0BASF0oW0NIMl1bQ0hdNClbQ0BASF0oW0NIMl01KVtDQEhdNUMoXEM9NFtDQEhdKEYpW0NIMl1DNjdbQ0gyXVtDSDJdNyk9W0NIXVxbQ0hdPUM9QzZbQ0gyXVtPSF0=

>  <s_glide_docking_method>  (1) 
confgen

>  <s_i_glide_gridfile>  (1) 
gpcr_drd2_6luq_protein_autoprepared_prepared

>  <s_lp_Force_Field>  (1) 
S-OPLS

>  <s_lp_Variant>  (1) 
DiffSBDD_56_num_sample_100-1

>  <s_m_source_file>  (1) 
generated__ligand_DiffSBDD_2026-05-06_prepared.sdf

>  <GenAI_Model>  (1) 
DiffSBDD

>  <Protein>  (1) 
generic_title2

$$$$
DiffSBDD_3_num_sample_100
     RDKit          3D

  0  0  0  0  0  0  0  0  0  0999 V3000
M  V30 BEGIN CTAB
M  V30 COUNTS 44 45 0 0 1
M  V30 BEGIN ATOM
M  V30 1 C 8.200607 4.367143 -16.142228 0
M  V30 2 O 7.767071 4.169320 -11.891616 0
M  V30 3 C 7.532229 6.683544 -20.337236 0
M  V30 4 O 5.734654 7.016045 -14.028263 0
M  V30 5 C 6.801947 6.328439 -19.016217 0
M  V30 6 C 8.084615 4.255554 -14.742092 0
M  V30 7 C 9.109937 3.413406 -16.897867 0
M  V30 8 C 8.411794 5.606543 -21.021537 0
M  V30 9 C 7.418818 3.274476 -21.676561 0
M  V30 10 O 7.608600 5.463203 -18.215740 0
M  V30 11 C 5.328596 3.404555 -20.095680 0
M  V30 12 C 7.258718 5.141571 -14.023392 0
M  V30 13 C 6.533008 6.143990 -14.711422 0
M  V30 14 C 5.330082 5.851734 -19.134898 0
M  V30 15 C 4.924813 4.881752 -20.263351 0
M  V30 16 C 7.721046 4.730245 -22.087504 0
M  V30 17 C 7.476444 5.364789 -16.837755 0
M  V30 18 C 6.634848 6.250416 -16.112254 0
M  V30 19 C 7.159503 5.015757 -12.543580 0
M  V30 20 C 6.808107 3.042209 -20.283069 0
M  V30 21 H 6.839171 7.131394 -21.049824 0
M  V30 22 H 8.219394 7.492132 -20.085442 0
M  V30 23 H 5.785199 6.964934 -13.085508 0
M  V30 24 H 6.759387 7.293954 -18.517312 0
M  V30 25 H 8.634849 3.490011 -14.217187 0
M  V30 26 H 10.152953 3.653429 -16.691655 0
M  V30 27 H 8.926774 2.386234 -16.581676 0
M  V30 28 H 8.975517 3.456965 -17.975695 0
M  V30 29 H 9.194807 6.154223 -21.547960 0
M  V30 30 H 8.958691 5.004931 -20.295878 0
M  V30 31 H 6.791569 2.805315 -22.435369 0
M  V30 32 H 8.362874 2.728863 -21.704850 0
M  V30 33 H 4.742585 2.803640 -20.790570 0
M  V30 34 H 5.034838 3.073000 -19.100026 0
M  V30 35 H 5.007489 5.439577 -18.180490 0
M  V30 36 H 4.723673 6.747852 -19.273094 0
M  V30 37 H 5.198586 5.275338 -21.234638 0
M  V30 38 H 3.834877 4.889186 -20.291743 0
M  V30 39 H 6.845773 5.227025 -22.498048 0
M  V30 40 H 8.392573 4.667826 -22.944963 0
M  V30 41 H 6.076075 7.016417 -16.622223 0
M  V30 42 H 6.497575 5.741479 -12.071809 0
M  V30 43 H 6.896688 1.976006 -20.070954 0
M  V30 44 H 7.411883 3.512706 -19.520593 0
M  V30 END ATOM
M  V30 BEGIN BOND
M  V30 1 1 5 3
M  V30 2 2 6 1
M  V30 3 1 7 1
M  V30 4 1 8 3
M  V30 5 1 10 5
M  V30 6 1 12 6
M  V30 7 1 13 4
M  V30 8 2 13 12
M  V30 9 1 14 5
M  V30 10 1 15 11
M  V30 11 1 15 14
M  V30 12 1 16 8
M  V30 13 1 16 9
M  V30 14 1 17 1
M  V30 15 1 17 10
M  V30 16 1 18 13
M  V30 17 2 18 17
M  V30 18 2 19 2
M  V30 19 1 19 12
M  V30 20 1 20 9
M  V30 21 1 20 11
M  V30 22 1 21 3
M  V30 23 1 22 3
M  V30 24 1 23 4
M  V30 25 1 24 5
M  V30 26 1 25 6
M  V30 27 1 26 7
M  V30 28 1 27 7
M  V30 29 1 28 7
M  V30 30 1 29 8
M  V30 31 1 30 8
M  V30 32 1 31 9
M  V30 33 1 32 9
M  V30 34 1 33 11
M  V30 35 1 34 11
M  V30 36 1 35 14
M  V30 37 1 36 14
M  V30 38 1 37 15
M  V30 39 1 38 15
M  V30 40 1 39 16
M  V30 41 1 40 16
M  V30 42 1 41 18
M  V30 43 1 42 19
M  V30 44 1 43 20
M  V30 45 1 44 20
M  V30 END BOND
M  V30 END CTAB
M  END
>  <i_epik_Tot_Q>  (1) 
0

>  <i_epik_Tot_abs_Q>  (1) 
0

>  <i_i_glide_confnum>  (1) 
107

>  <i_i_glide_lignum>  (1) 
5

>  <i_i_glide_posenum>  (1) 
129

>  <i_i_glide_rotatable_bonds>  (1) 
4

>  <i_lp_mmshare_version>  (1) 
72125

>  <i_m_source_file_index>  (1) 
4

>  <i_f3d_flags>  (1) 
0

>  <num_sample>  (1) 
100

>  <b_lp_Chiralities_Consistent>  (1) 
1

>  <r_epik_Charging_Adjusted_Penalty>  (1) 
0.086869227700427584

>  <r_epik_Ionization_Penalty>  (1) 
0.086869227700427626

>  <r_epik_Ionization_Penalty_Charging>  (1) 
0

>  <r_epik_Ionization_Penalty_Neutral>  (1) 
0.086869227700427626

>  <r_epik_State_Penalty>  (1) 
0.086869227700427584

>  <r_glide_ring_energy>  (1) 
1.6418886826786672

>  <r_i_docking_score>  (1) 
-3.5641397398673758

>  <r_i_glide_ecoul>  (1) 
-0.22680436687812688

>  <r_i_glide_eff_state_penalty>  (1) 
0.086869227700427584

>  <r_i_glide_einternal>  (1) 
0.37345625137575311

>  <r_i_glide_emodel>  (1) 
-22.003752675904714

>  <r_i_glide_emodel_strain>  (1) 
0

>  <r_i_glide_energy>  (1) 
-18.279420852482467

>  <r_i_glide_erotb>  (1) 
0.47104844352190411

>  <r_i_glide_esite>  (1) 
0

>  <r_i_glide_evdw>  (1) 
-18.052616485604339

>  <r_i_glide_gscore>  (1) 
-3.6510089675678032

>  <r_i_glide_gscore_strain>  (1) 
0

>  <r_i_glide_hbond>  (1) 
0

>  <r_i_glide_ligand_efficiency>  (1) 
-0.17820698699336879

>  <r_i_glide_ligand_efficiency_ln>  (1) 
-0.89198662369269888

>  <r_i_glide_ligand_efficiency_sa>  (1) 
-0.48372818489509967

>  <r_i_glide_lipo>  (1) 
-1.4954611976156644

>  <r_i_glide_metal>  (1) 
-0

>  <r_i_glide_rewards>  (1) 
-1.6899447341621074

>  <r_lp_Energy>  (1) 
28.610363

>  <s_epik_cmdline>  (1) 
J2VwaWtfcHl0aG9uJywgJy1waHQnLCAnMS4wJywgJy1waCcsICc3LjQnLCAnLXRuJywgJzgnLCAnLW1hJywgJzUwMCcsICctaW1hZScsICc8aW5maWxlLm1hZT4nLCAnLW9tYWUnLCAnPG91dGZpbGUubWFlPic=

>  <s_epik_input>  (1) 
W0NIM11jMVtjSF1jKFtDSF09TyljKFtPSF0pW2NIXWMxT1tDSF0yW0NIMl1bQ0gyXVtDSDJdW0NIMl1bQ0gyXVtDSDJdW0NIMl1bQ0gyXTI=

>  <s_glide_docking_method>  (1) 
confgen

>  <s_i_glide_gridfile>  (1) 
gpcr_drd2_6luq_protein_autoprepared_prepared

>  <s_lp_Force_Field>  (1) 
S-OPLS

>  <s_lp_Variant>  (1) 
DiffSBDD_3_num_sample_100-1

>  <s_m_source_file>  (1) 
generated__ligand_DiffSBDD_2026-05-06_prepared.sdf

>  <GenAI_Model>  (1) 
DiffSBDD

>  <Protein>  (1) 
generic_title2

$$$$
DiffSBDD_42_num_sample_100
     RDKit          3D

  0  0  0  0  0  0  0  0  0  0999 V3000
M  V30 BEGIN CTAB
M  V30 COUNTS 45 46 0 0 1
M  V30 BEGIN ATOM
M  V30 1 C 8.033871 1.531874 -15.379895 0 CFG=2
M  V30 2 O 7.500376 0.355786 -17.402557 0
M  V30 3 N 6.645895 5.576732 -15.055649 0
M  V30 4 C 8.503821 6.501198 -11.650503 0
M  V30 5 C 4.902602 6.396850 -16.918318 0
M  V30 6 O 5.548753 7.296663 -16.027704 0
M  V30 7 C 7.153700 5.930972 -12.019875 0 CFG=1
M  V30 8 N 5.889173 0.368475 -15.718789 0
M  V30 9 C 8.285115 3.841913 -14.893527 0 CFG=2
M  V30 10 C 6.786631 0.601057 -13.414892 0
M  V30 11 C 7.092289 4.670492 -12.863060 0
M  V30 12 C 10.113320 5.033069 -15.801061 0
M  V30 13 O 7.418638 2.806644 -15.206767 0
M  V30 14 C 7.122876 0.680855 -16.279931 0
M  V30 15 C 6.486388 6.953728 -15.096454 0
M  V30 16 N 7.562644 4.923395 -14.233062 0
M  V30 17 C 4.281818 0.389762 -13.892077 0
M  V30 18 O 7.087707 7.769168 -14.407181 0
M  V30 19 C 8.172024 0.814281 -14.032293 0
M  V30 20 N 7.704959 5.769186 -10.691653 0 CHG=1
M  V30 21 O 8.927395 4.293235 -16.043546 0
M  V30 22 C 5.674944 0.439004 -14.457398 0
M  V30 23 H 8.986986 1.638324 -15.891744 0
M  V30 24 H 6.086532 5.017597 -15.681869 0
M  V30 25 H 9.414103 5.941935 -11.859119 0
M  V30 26 H 8.599384 7.535999 -11.323280 0
M  V30 27 H 4.338441 6.962677 -17.659914 0
M  V30 28 H 5.620295 5.772383 -17.450439 0
M  V30 29 H 4.200193 5.770790 -16.373397 0
M  V30 30 H 6.281140 6.583467 -12.004124 0
M  V30 31 H 9.032880 3.550622 -14.149656 0
M  V30 32 H 6.538728 1.459112 -12.792449 0
M  V30 33 H 6.792561 -0.266720 -12.753861 0
M  V30 34 H 6.078859 4.262090 -12.881015 0
M  V30 35 H 7.729219 3.912215 -12.406412 0
M  V30 36 H 10.413821 5.555169 -16.709558 0
M  V30 37 H 9.979206 5.767798 -15.010475 0
M  V30 38 H 10.931900 4.381069 -15.506495 0
M  V30 39 H 4.227268 -0.345900 -13.087956 0
M  V30 40 H 4.023293 1.365863 -13.491668 0
M  V30 41 H 3.551566 0.165220 -14.671072 0
M  V30 42 H 8.634385 -0.160163 -14.196550 0
M  V30 43 H 8.820302 1.355062 -13.342024 0
M  V30 44 H 7.382477 6.426577 -9.972651 0
M  V30 45 H 8.098467 4.880688 -10.422977 0
M  V30 END ATOM
M  V30 BEGIN BOND
M  V30 1 1 6 5
M  V30 2 1 7 4
M  V30 3 1 11 7
M  V30 4 1 13 1
M  V30 5 1 13 9
M  V30 6 1 14 1
M  V30 7 2 14 2
M  V30 8 1 14 8
M  V30 9 1 15 3
M  V30 10 1 15 6
M  V30 11 1 16 3
M  V30 12 1 16 9
M  V30 13 1 16 11
M  V30 14 2 18 15
M  V30 15 1 19 1
M  V30 16 1 19 10
M  V30 17 1 20 4
M  V30 18 1 20 7
M  V30 19 1 21 9
M  V30 20 1 21 12
M  V30 21 2 22 8
M  V30 22 1 22 10
M  V30 23 1 22 17
M  V30 24 1 1 23 CFG=3
M  V30 25 1 24 3
M  V30 26 1 25 4
M  V30 27 1 26 4
M  V30 28 1 27 5
M  V30 29 1 28 5
M  V30 30 1 29 5
M  V30 31 1 7 30 CFG=1
M  V30 32 1 9 31 CFG=1
M  V30 33 1 32 10
M  V30 34 1 33 10
M  V30 35 1 34 11
M  V30 36 1 35 11
M  V30 37 1 36 12
M  V30 38 1 37 12
M  V30 39 1 38 12
M  V30 40 1 39 17
M  V30 41 1 40 17
M  V30 42 1 41 17
M  V30 43 1 42 19
M  V30 44 1 43 19
M  V30 45 1 44 20
M  V30 46 1 45 20
M  V30 END BOND
M  V30 END CTAB
M  END
>  <i_epik_Tot_Q>  (1) 
1

>  <i_epik_Tot_abs_Q>  (1) 
1

>  <i_i_glide_confnum>  (1) 
57

>  <i_i_glide_lignum>  (1) 
73

>  <i_i_glide_posenum>  (1) 
397

>  <i_i_glide_rotatable_bonds>  (1) 
9

>  <i_lp_mmshare_version>  (1) 
72125

>  <i_m_source_file_index>  (1) 
43

>  <i_f3d_flags>  (1) 
0

>  <num_sample>  (1) 
100

>  <b_lp_Chiralities_Consistent>  (1) 
1

>  <r_epik_Charging_Adjusted_Penalty>  (1) 
0.40508873970444137

>  <r_epik_Ionization_Penalty>  (1) 
0.2046740673665137

>  <r_epik_Ionization_Penalty_Charging>  (1) 
0.20254436985222068

>  <r_epik_Ionization_Penalty_Neutral>  (1) 
0.0021296975142930212

>  <r_epik_State_Penalty>  (1) 
0.20254436985222066

>  <r_glide_ring_energy>  (1) 
0

>  <r_i_docking_score>  (1) 
-3.5609462197404063

>  <r_i_glide_ecoul>  (1) 
-7.5520895772017216

>  <r_i_glide_eff_state_penalty>  (1) 
0.20254436985222066

>  <r_i_glide_einternal>  (1) 
13.195271589105346

>  <r_i_glide_emodel>  (1) 
-34.834526639213074

>  <r_i_glide_emodel_strain>  (1) 
0.79962819230714643

>  <r_i_glide_energy>  (1) 
-30.664841968187226

>  <r_i_glide_erotb>  (1) 
1.1222905180223397

>  <r_i_glide_esite>  (1) 
-0.12147582425179811

>  <r_i_glide_evdw>  (1) 
-23.112752390985502

>  <r_i_glide_gscore>  (1) 
-3.7634905895926267

>  <r_i_glide_gscore_strain>  (1) 
0

>  <r_i_glide_hbond>  (1) 
-0.20000000000000001

>  <r_i_glide_ligand_efficiency>  (1) 
-0.16186119180638212

>  <r_i_glide_ligand_efficiency_ln>  (1) 
-0.87042514477385668

>  <r_i_glide_ligand_efficiency_sa>  (1) 
-0.45354142554823818

>  <r_i_glide_lipo>  (1) 
-0.85196393123054825

>  <r_i_glide_metal>  (1) 
-0

>  <r_i_glide_rewards>  (1) 
-1.4238902960030857

>  <r_lp_Energy>  (1) 
15.805226999999999

>  <s_epik_Chemistry_Notes>  (1) 
This compound has an ester and may undergo hydrolysis at high or low pH. This compound has an imine and may undergo hydrolysis. This compound contains an acetal/aminal-like group ( X-CH(R)-Y where X, Y are N, S, or O) that may be acid/base labile, releasing an aldehyde.

>  <s_epik_cmdline>  (1) 
J2VwaWtfcHl0aG9uJywgJy1waHQnLCAnMS4wJywgJy1waCcsICc3LjQnLCAnLXRuJywgJzgnLCAnLW1hJywgJzUwMCcsICctaW1hZScsICc8aW5maWxlLm1hZT4nLCAnLW9tYWUnLCAnPG91dGZpbGUubWFlPic=

>  <s_epik_input>  (1) 
W0NIMl0xW0NIMl1DKFtDSDNdKT1OQyg9TylbQ0BIXTFPW0NAQEhdKE9bQ0gzXSlOKFtOSF1DKD1PKU9bQ0gzXSlbQ0gyXVtDQEBIXTJbQ0gyXVtOSF0y

>  <s_glide_docking_method>  (1) 
confgen

>  <s_i_glide_gridfile>  (1) 
gpcr_drd2_6luq_protein_autoprepared_prepared

>  <s_lp_Force_Field>  (1) 
S-OPLS

>  <s_lp_Variant>  (1) 
DiffSBDD_42_num_sample_100-1

>  <s_m_source_file>  (1) 
generated__ligand_DiffSBDD_2026-05-06_prepared.sdf

>  <GenAI_Model>  (1) 
DiffSBDD

>  <Protein>  (1) 
generic_title2

$$$$
DiffSBDD_50_num_sample_100
     RDKit          3D

  0  0  0  0  0  0  0  0  0  0999 V3000
M  V30 BEGIN CTAB
M  V30 COUNTS 73 76 0 0 1
M  V30 BEGIN ATOM
M  V30 1 C 8.775980 0.026146 -18.782715 0
M  V30 2 C 8.743044 5.793812 -12.546396 0 CFG=1
M  V30 3 S 8.226918 0.081962 -16.261070 0
M  V30 4 C 5.407001 5.899236 -18.867742 0
M  V30 5 C 8.584783 1.750419 -17.054620 0 CFG=1
M  V30 6 C 6.470195 4.586176 -12.651711 0
M  V30 7 F 8.469059 3.899786 -23.197743 0
M  V30 8 C 8.786825 3.417231 -12.306074 0
M  V30 9 O 8.148376 5.483985 -10.131689 0
M  V30 10 O 5.743819 5.373406 -13.301274 0
M  V30 11 C 8.811235 4.710103 -17.915716 0
M  V30 12 C 8.460137 -0.707689 -17.749913 0
M  V30 13 C 9.688805 7.982666 -10.649145 0
M  V30 14 O 8.077139 7.031005 -22.925114 0 CHG=-1
M  V30 15 C 6.104025 4.729950 -19.652018 0 CFG=2
M  V30 16 F 9.189969 3.290733 -21.248840 0
M  V30 17 C 5.837062 7.107426 -19.148160 0
M  V30 18 N 8.748806 6.333115 -22.171101 0 CHG=1
M  V30 19 O 9.923043 5.769412 -13.347653 0
M  V30 20 C 8.088050 4.285651 -14.614022 0
M  V30 21 O 6.748272 3.734270 -18.855183 0
M  V30 22 C 8.068741 5.353955 -21.369573 0 CHG=-1
M  V30 23 C 8.905611 1.506059 -18.606062 0
M  V30 24 C 9.652395 4.092840 -11.230073 0
M  V30 25 C 7.430737 4.075403 -17.646471 0 CFG=1
M  V30 26 C 7.204600 3.182702 -15.247244 0 CFG=2
M  V30 27 C 9.022322 8.309412 -12.003866 0
M  V30 28 C 9.184863 5.522778 -11.093744 0 CFG=1
M  V30 29 C 8.215163 3.933440 -21.889275 0
M  V30 30 N 8.285779 -2.073934 -17.720734 0
M  V30 31 O 6.087193 3.847208 -11.717508 0 CHG=-1
M  V30 32 C 10.233669 6.561116 -10.609808 0
M  V30 33 C 8.102875 7.208167 -12.603232 0
M  V30 34 O 7.058882 2.057391 -14.406621 0
M  V30 35 C 7.445371 2.792514 -16.753115 0 CFG=2
M  V30 36 C 7.050593 5.758891 -20.405568 0
M  V30 37 C 7.978122 4.519381 -13.056084 0 CFG=2
M  V30 38 O 9.967352 6.415944 -22.063908 0
M  V30 39 C 6.833054 7.030052 -20.076920 0
M  V30 40 H 8.939780 -0.400263 -19.760728 0
M  V30 41 H 4.634712 5.695117 -18.151174 0
M  V30 42 H 9.502632 2.116904 -16.598163 0
M  V30 43 H 8.185539 2.635430 -11.891916 0
M  V30 44 H 9.434829 2.875627 -12.987409 0
M  V30 45 H 7.748014 6.348371 -10.037323 0
M  V30 46 H 9.420783 4.765878 -17.016298 0
M  V30 47 H 9.376133 4.158755 -18.664681 0
M  V30 48 H 8.709225 5.730669 -18.282249 0
M  V30 49 H 9.034834 8.142319 -9.802343 0
M  V30 50 H 10.521537 8.660382 -10.471818 0
M  V30 51 H 5.408831 4.267933 -20.351920 0
M  V30 52 H 5.468072 8.019923 -18.701306 0
M  V30 53 H 10.363983 4.939418 -13.225450 0
M  V30 54 H 7.856326 5.233797 -15.100468 0
M  V30 55 H 9.112496 4.082287 -14.898902 0
M  V30 56 H 8.200958 1.970894 -19.287685 0
M  V30 57 H 9.912109 1.830599 -18.869656 0
M  V30 58 H 10.634825 4.169358 -11.664141 0
M  V30 59 H 9.738658 3.547223 -10.293196 0
M  V30 60 H 6.829825 4.812155 -17.116215 0
M  V30 61 H 6.234800 3.642292 -15.224646 0
M  V30 62 H 8.475670 9.247944 -11.930313 0
M  V30 63 H 9.834683 8.492892 -12.691380 0
M  V30 64 H 7.298623 3.366377 -21.735589 0
M  V30 65 H 8.315182 -2.632052 -18.560506 0
M  V30 66 H 10.583247 6.326715 -9.602634 0
M  V30 67 H 11.104684 6.569909 -11.263491 0
M  V30 68 H 7.172002 7.218631 -12.034889 0
M  V30 69 H 7.828634 7.460644 -13.627695 0
M  V30 70 H 7.855580 1.550294 -14.427219 0
M  V30 71 H 6.537722 2.250983 -17.024807 0
M  V30 72 H 7.371702 7.877690 -20.476687 0
M  V30 73 H 7.980397 -2.551083 -16.875906 0
M  V30 END ATOM
M  V30 BEGIN BOND
M  V30 1 1 5 3
M  V30 2 2 10 6
M  V30 3 2 12 1
M  V30 4 1 12 3
M  V30 5 1 15 4
M  V30 6 2 17 4
M  V30 7 1 18 14
M  V30 8 1 2 19 CFG=3
M  V30 9 1 21 15
M  V30 10 1 22 18
M  V30 11 1 23 1
M  V30 12 1 23 5
M  V30 13 1 24 8
M  V30 14 1 25 11
M  V30 15 1 25 21
M  V30 16 1 26 20
M  V30 17 1 27 13
M  V30 18 1 28 2
M  V30 19 1 28 9 CFG=1
M  V30 20 1 28 24
M  V30 21 1 29 7
M  V30 22 1 29 16
M  V30 23 1 29 22
M  V30 24 1 30 12
M  V30 25 1 31 6
M  V30 26 1 32 13
M  V30 27 1 32 28
M  V30 28 1 33 2
M  V30 29 1 33 27
M  V30 30 1 34 26
M  V30 31 1 35 5
M  V30 32 1 35 25
M  V30 33 1 35 26
M  V30 34 1 36 15
M  V30 35 1 36 22
M  V30 36 1 37 2
M  V30 37 1 37 6
M  V30 38 1 37 8
M  V30 39 1 37 20 CFG=3
M  V30 40 2 38 18
M  V30 41 1 39 17
M  V30 42 2 39 36
M  V30 43 1 40 1
M  V30 44 1 41 4
M  V30 45 1 5 42 CFG=1
M  V30 46 1 43 8
M  V30 47 1 44 8
M  V30 48 1 45 9
M  V30 49 1 46 11
M  V30 50 1 47 11
M  V30 51 1 48 11
M  V30 52 1 49 13
M  V30 53 1 50 13
M  V30 54 1 15 51 CFG=3
M  V30 55 1 52 17
M  V30 56 1 53 19
M  V30 57 1 54 20
M  V30 58 1 55 20
M  V30 59 1 56 23
M  V30 60 1 57 23
M  V30 61 1 58 24
M  V30 62 1 59 24
M  V30 63 1 25 60 CFG=1
M  V30 64 1 26 61 CFG=3
M  V30 65 1 62 27
M  V30 66 1 63 27
M  V30 67 1 64 29
M  V30 68 1 65 30
M  V30 69 1 66 32
M  V30 70 1 67 32
M  V30 71 1 68 33
M  V30 72 1 69 33
M  V30 73 1 70 34
M  V30 74 1 35 71 CFG=3
M  V30 75 1 72 39
M  V30 76 1 73 30
M  V30 END BOND
M  V30 END CTAB
M  END
>  <i_epik_Tot_Q>  (1) 
-2

>  <i_epik_Tot_abs_Q>  (1) 
4

>  <i_i_glide_confnum>  (1) 
827

>  <i_i_glide_lignum>  (1) 
95

>  <i_i_glide_posenum>  (1) 
288

>  <i_i_glide_rotatable_bonds>  (1) 
14

>  <i_lp_mmshare_version>  (1) 
72125

>  <i_m_source_file_index>  (1) 
51

>  <i_f3d_flags>  (1) 
0

>  <num_sample>  (1) 
100

>  <b_lp_Chiralities_Consistent>  (1) 
1

>  <r_epik_Charging_Adjusted_Penalty>  (1) 
0.034577084899783249

>  <r_epik_Ionization_Penalty>  (1) 
0.017860666668860211

>  <r_epik_Ionization_Penalty_Charging>  (1) 
0.017835632133054159

>  <r_epik_Ionization_Penalty_Neutral>  (1) 
2.5034535806051729e-05

>  <r_epik_State_Penalty>  (1) 
0.01674145276672909

>  <r_glide_ring_energy>  (1) 
0

>  <r_i_docking_score>  (1) 
-3.5602810259769071

>  <r_i_glide_ecoul>  (1) 
-4.8880235789416258

>  <r_i_glide_eff_state_penalty>  (1) 
0.01674145276672909

>  <r_i_glide_einternal>  (1) 
5.3209687125908829

>  <r_i_glide_emodel>  (1) 
-25.099437083719472

>  <r_i_glide_emodel_strain>  (1) 
0.90953105675399115

>  <r_i_glide_energy>  (1) 
-23.957307206952144

>  <r_i_glide_erotb>  (1) 
0.41647013485751849

>  <r_i_glide_esite>  (1) 
-0.047564987154346872

>  <r_i_glide_evdw>  (1) 
-19.06928362801052

>  <r_i_glide_gscore>  (1) 
-3.5770224787436362

>  <r_i_glide_gscore_strain>  (1) 
0

>  <r_i_glide_hbond>  (1) 
-0.40313010374890779

>  <r_i_glide_ligand_efficiency>  (1) 
-0.091289257076330954

>  <r_i_glide_ligand_efficiency_ln>  (1) 
-0.76342531655642054

>  <r_i_glide_ligand_efficiency_sa>  (1) 
-0.30958117322151557

>  <r_i_glide_lipo>  (1) 
-1.5356555757749812

>  <r_i_glide_metal>  (1) 
-0

>  <r_i_glide_rewards>  (1) 
-0.32047422868114894

>  <r_lp_Energy>  (1) 
37.244749999999996

>  <s_epik_Chemistry_Notes>  (1) 
This compound has an imine and may undergo hydrolysis.

>  <s_epik_cmdline>  (1) 
J2VwaWtfcHl0aG9uJywgJy1waHQnLCAnMS4wJywgJy1waCcsICc3LjQnLCAnLXRuJywgJzgnLCAnLW1hJywgJzUwMCcsICctaW1hZScsICc8aW5maWxlLm1hZT4nLCAnLW9tYWUnLCAnPG91dGZpbGUubWFlPic=

>  <s_epik_input>  (1) 
W0NIMl0xW0NIMl1bQ0gyXVtDSDJdW0NAQF0oW09IXSkoW0NAXTEyW09IXSlbQ0gyXVtDSDJdW0NAXTIoQyg9TylbT0hdKVtDSDJdW0NASF0oW09IXSlbQ0BIXShbQ0BIXTNTQyg9Ti9bSF0pXFtDSDJdW0NIMl0zKVtDQEBIXShbQ0gzXSlPW0NASF00W0NIXT1bQ0hdW0NIXT1DNFtDQEBIXShbTitdKFtPLV0pPU8pW0NIXShGKUY=

>  <s_glide_docking_method>  (1) 
confgen

>  <s_i_glide_gridfile>  (1) 
gpcr_drd2_6luq_protein_autoprepared_prepared

>  <s_lp_Force_Field>  (1) 
S-OPLS

>  <s_lp_Variant>  (1) 
DiffSBDD_50_num_sample_100-1

>  <s_m_source_file>  (1) 
generated__ligand_DiffSBDD_2026-05-06_prepared.sdf

>  <GenAI_Model>  (1) 
DiffSBDD

>  <Protein>  (1) 
generic_title2

$$$$
DiffSBDD_6_num_sample_100
     RDKit          3D

  0  0  0  0  0  0  0  0  0  0999 V3000
M  V30 BEGIN CTAB
M  V30 COUNTS 65 68 0 0 1
M  V30 BEGIN ATOM
M  V30 1 N 7.181307 5.021840 -13.719920 0
M  V30 2 N 10.600253 7.952612 -8.396652 0
M  V30 3 C 10.755176 7.083852 -7.284698 0
M  V30 4 C 8.412223 6.199787 -7.250678 0
M  V30 5 C 7.545785 4.423867 -18.600484 0
M  V30 6 N 8.733449 6.874545 -10.830997 0 CFG=2 CHG=1
M  V30 7 C 6.740789 5.427265 -14.994349 0
M  V30 8 F 13.033483 7.421844 -7.491392 0
M  V30 9 C 9.214130 3.768690 -10.872925 0
M  V30 10 C 7.880353 3.756295 -13.547532 0
M  V30 11 C 9.221829 6.377976 -9.562144 0 CFG=1
M  V30 12 F 7.319097 4.868594 -19.835954 0
M  V30 13 C 8.671305 6.056315 -12.051390 0 CFG=2
M  V30 14 C 9.496959 7.851166 -9.288929 0 CFG=2
M  V30 15 C 9.770149 7.898488 -10.786715 0
M  V30 16 F 8.862705 4.274923 -18.450927 0
M  V30 17 C 5.749961 7.536891 -17.045970 0
M  V30 18 C 5.432489 7.425730 -15.763956 0
M  V30 19 C 7.010825 5.353166 -17.514461 0
M  V30 20 C 7.185702 5.890201 -12.505898 0 CFG=1
M  V30 21 F 11.835005 9.688528 -7.546433 0
M  V30 22 C 5.469422 6.176588 -15.011452 0
M  V30 23 C 6.291331 6.467987 -17.898189 0
M  V30 24 C 8.235035 5.658756 -8.652470 0
M  V30 25 C 6.595640 7.330522 -12.634922 0
M  V30 26 F 11.837325 7.955970 -5.630679 0
M  V30 27 C 9.802086 6.286223 -6.777151 0
M  V30 28 C 9.531612 4.768580 -11.986268 0 CFG=2
M  V30 29 C 7.374616 5.031182 -16.115843 0
M  V30 30 C 12.038719 7.119855 -6.660900 0
M  V30 31 C 9.352501 4.011962 -13.273008 0
M  V30 32 C 11.510900 9.063752 -8.681775 0
M  V30 33 F 6.988493 3.218644 -18.480598 0
M  V30 34 H 7.797964 5.688998 -6.514057 0
M  V30 35 H 8.234839 7.265506 -7.165809 0
M  V30 36 H 8.157091 3.796234 -10.625913 0
M  V30 37 H 9.435082 2.743773 -11.143523 0
M  V30 38 H 9.834011 3.883231 -9.992717 0
M  V30 39 H 7.419616 3.212337 -12.722457 0
M  V30 40 H 7.754164 3.099766 -14.405700 0
M  V30 41 H 10.183595 5.868229 -9.632714 0
M  V30 42 H 9.128615 6.657583 -12.840263 0
M  V30 43 H 8.685624 8.509590 -8.965088 0
M  V30 44 H 10.756376 7.546743 -11.107633 0
M  V30 45 H 9.453864 8.800861 -11.302672 0
M  V30 46 H 5.588237 8.496860 -17.501557 0
M  V30 47 H 5.047407 8.286583 -15.241289 0
M  V30 48 H 6.639897 5.366018 -11.719762 0
M  V30 49 H 4.832335 5.559565 -15.627006 0
M  V30 50 H 4.924320 6.161901 -14.076750 0
M  V30 51 H 6.156332 6.608333 -18.959846 0
M  V30 52 H 8.407337 4.587545 -8.587379 0
M  V30 53 H 7.209123 5.769269 -8.988490 0
M  V30 54 H 6.864028 8.017950 -11.837127 0
M  V30 55 H 6.965384 7.789787 -13.549368 0
M  V30 56 H 5.507295 7.368335 -12.593536 0
M  V30 57 H 10.040410 5.695604 -5.916702 0
M  V30 58 H 10.584747 5.041604 -11.899959 0
M  V30 59 H 8.242797 4.404079 -15.986517 0
M  V30 60 H 12.235066 6.124172 -6.257681 0
M  V30 61 H 9.834181 3.059188 -13.091214 0
M  V30 62 H 9.827294 4.531422 -14.108462 0
M  V30 63 H 12.402372 8.754776 -9.236635 0
M  V30 64 H 11.025767 9.813478 -9.299558 0
M  V30 65 H 7.834882 7.309759 -10.595206 0
M  V30 END ATOM
M  V30 BEGIN BOND
M  V30 1 1 3 2
M  V30 2 1 7 1
M  V30 3 1 10 1
M  V30 4 1 11 6
M  V30 5 1 12 5
M  V30 6 1 13 6
M  V30 7 1 14 2
M  V30 8 1 14 11
M  V30 9 1 15 6
M  V30 10 1 15 14
M  V30 11 1 16 5
M  V30 12 2 18 17
M  V30 13 1 19 5
M  V30 14 1 20 1
M  V30 15 1 20 13
M  V30 16 1 22 7
M  V30 17 1 22 18
M  V30 18 1 23 17
M  V30 19 2 23 19
M  V30 20 1 24 4
M  V30 21 1 24 11
M  V30 22 1 25 20
M  V30 23 2 27 3
M  V30 24 1 27 4
M  V30 25 1 28 9
M  V30 26 1 28 13
M  V30 27 2 29 7
M  V30 28 1 29 19
M  V30 29 1 30 3
M  V30 30 1 30 8
M  V30 31 1 30 26
M  V30 32 1 31 10
M  V30 33 1 31 28
M  V30 34 1 32 2
M  V30 35 1 32 21
M  V30 36 1 33 5
M  V30 37 1 34 4
M  V30 38 1 35 4
M  V30 39 1 36 9
M  V30 40 1 37 9
M  V30 41 1 38 9
M  V30 42 1 39 10
M  V30 43 1 40 10
M  V30 44 1 11 41 CFG=3
M  V30 45 1 13 42 CFG=3
M  V30 46 1 14 43 CFG=1
M  V30 47 1 44 15
M  V30 48 1 45 15
M  V30 49 1 46 17
M  V30 50 1 47 18
M  V30 51 1 20 48 CFG=1
M  V30 52 1 49 22
M  V30 53 1 50 22
M  V30 54 1 51 23
M  V30 55 1 52 24
M  V30 56 1 53 24
M  V30 57 1 54 25
M  V30 58 1 55 25
M  V30 59 1 56 25
M  V30 60 1 57 27
M  V30 61 1 28 58 CFG=1
M  V30 62 1 59 29
M  V30 63 1 60 30
M  V30 64 1 61 31
M  V30 65 1 62 31
M  V30 66 1 63 32
M  V30 67 1 64 32
M  V30 68 1 6 65 CFG=1
M  V30 END BOND
M  V30 END CTAB
M  END
>  <i_epik_Tot_Q>  (1) 
1

>  <i_epik_Tot_abs_Q>  (1) 
1

>  <i_i_glide_confnum>  (1) 
26

>  <i_i_glide_lignum>  (1) 
10

>  <i_i_glide_posenum>  (1) 
47

>  <i_i_glide_rotatable_bonds>  (1) 
5

>  <i_lp_mmshare_version>  (1) 
72125

>  <i_m_source_file_index>  (1) 
7

>  <i_f3d_flags>  (1) 
0

>  <num_sample>  (1) 
100

>  <b_lp_Chiralities_Consistent>  (1) 
1

>  <r_epik_Charging_Adjusted_Penalty>  (1) 
2.2946868864184928

>  <r_epik_Ionization_Penalty>  (1) 
1.147343534253078

>  <r_epik_Ionization_Penalty_Charging>  (1) 
1.1473434712357071

>  <r_epik_Ionization_Penalty_Neutral>  (1) 
6.301737089438289e-08

>  <r_epik_State_Penalty>  (1) 
1.1473434151827855

>  <r_glide_ring_energy>  (1) 
0.066861304234087426

>  <r_i_docking_score>  (1) 
-3.5532801152063076

>  <r_i_glide_ecoul>  (1) 
-9.238444038842486

>  <r_i_glide_eff_state_penalty>  (1) 
1.1473434151827855

>  <r_i_glide_einternal>  (1) 
10.533766419871782

>  <r_i_glide_emodel>  (1) 
-9.6782584924285899

>  <r_i_glide_emodel_strain>  (1) 
1.3792188485719805

>  <r_i_glide_energy>  (1) 
-9.3693580607350437

>  <r_i_glide_erotb>  (1) 
0.17835229215497114

>  <r_i_glide_esite>  (1) 
-0.10644809615332887

>  <r_i_glide_evdw>  (1) 
-0.1309140218925578

>  <r_i_glide_gscore>  (1) 
-4.7006235303890929

>  <r_i_glide_gscore_strain>  (1) 
0

>  <r_i_glide_hbond>  (1) 
-0.18237538844480483

>  <r_i_glide_ligand_efficiency>  (1) 
-0.10767515500625174

>  <r_i_glide_ligand_efficiency_ln>  (1) 
-0.79023109972208072

>  <r_i_glide_ligand_efficiency_sa>  (1) 
-0.34537175617017446

>  <r_i_glide_lipo>  (1) 
-2.0725043159691907

>  <r_i_glide_metal>  (1) 
-0

>  <r_i_glide_rewards>  (1) 
-1.125335715055739

>  <r_lp_Energy>  (1) 
64.529619999999994

>  <s_epik_Chemistry_Notes>  (1) 
This compound has an imine and may undergo hydrolysis.

>  <s_epik_cmdline>  (1) 
J2VwaWtfcHl0aG9uJywgJy1waHQnLCAnMS4wJywgJy1waCcsICc3LjQnLCAnLXRuJywgJzgnLCAnLW1hJywgJzUwMCcsICctaW1hZScsICc8aW5maWxlLm1hZT4nLCAnLW9tYWUnLCAnPG91dGZpbGUubWFlPic=

>  <s_epik_input>  (1) 
W0NIMl0xW0NIXT1bQ0hdW0NIXT1DKEMoRikoRilGKVtDSF09QzFOMltDSDJdW0NIMl1bQ0BIXShbQ0gzXSlbQ0BASF0oW0NASF0yW0NIM10pTjNbQ0gyXVtDQEBIXShbQ0BIXTM0KU4oW0NIMl1GKUMoW0NIXShGKUYpPVtDSF1bQ0gyXVtDSDJdNA==

>  <s_glide_docking_method>  (1) 
confgen

>  <s_i_glide_gridfile>  (1) 
gpcr_drd2_6luq_protein_autoprepared_prepared

>  <s_lp_Force_Field>  (1) 
S-OPLS

>  <s_lp_Variant>  (1) 
DiffSBDD_6_num_sample_100-2

>  <s_m_source_file>  (1) 
generated__ligand_DiffSBDD_2026-05-06_prepared.sdf

>  <GenAI_Model>  (1) 
DiffSBDD

>  <Protein>  (1) 
generic_title2

$$$$
DiffSBDD_70_num_sample_100
     RDKit          3D

  0  0  0  0  0  0  0  0  0  0999 V3000
M  V30 BEGIN CTAB
M  V30 COUNTS 76 78 0 0 1
M  V30 BEGIN ATOM
M  V30 1 C 7.718190 3.944742 -18.339427 0 CFG=1
M  V30 2 C 7.257471 3.306720 -20.601189 0
M  V30 3 C 8.030641 4.294829 -15.982498 0 CFG=1
M  V30 4 C 8.099048 4.577119 -10.948334 0
M  V30 5 C 7.082433 1.759102 -12.886367 0
M  V30 6 Cl 6.343610 0.968952 -14.304451 0
M  V30 7 C 9.344071 5.428578 -10.736655 0
M  V30 8 C 7.323977 2.006078 -19.794946 0
M  V30 9 C 9.566023 8.354274 -8.933157 0
M  V30 10 C 7.493872 2.425955 -18.330696 0
M  V30 11 C 10.067622 7.828208 -10.283077 0 CFG=1
M  V30 12 C 9.113081 5.367990 -15.873051 0
M  V30 13 C 7.142442 4.371620 -14.720571 0
M  V30 14 C 11.816358 6.900846 -6.949087 0
M  V30 15 C 7.330084 4.837959 -12.266849 0 CFG=1
M  V30 16 C 10.667073 8.942421 -8.001772 0 CFG=2
M  V30 17 O 6.599467 6.106275 -21.261089 0
M  V30 18 O 10.629270 6.163956 -7.126101 0
M  V30 19 C 11.957182 8.155902 -7.856809 0 CFG=2
M  V30 20 C 7.140779 6.383303 -12.351656 0
M  V30 21 C 6.949774 4.416008 -19.586035 0 CFG=2
M  V30 22 C 8.215192 2.726754 -13.292213 0
M  V30 23 C 11.475981 7.227726 -10.122936 0
M  V30 24 O 7.236759 4.558060 -17.140914 0
M  V30 25 C 12.507718 7.975382 -9.284456 0
M  V30 26 C 7.336025 5.820485 -20.095056 0
M  V30 27 C 8.432851 7.206589 -12.121463 0
M  V30 28 O 9.168594 8.416754 -6.291699 0
M  V30 29 O 7.083837 6.765619 -19.088673 0
M  V30 30 F 12.821754 8.969275 -7.247336 0
M  V30 31 N 9.034911 6.874634 -10.808985 0 CFG=1 CHG=1
M  V30 32 N 7.893617 4.163534 -13.468083 0
M  V30 33 O 10.234684 9.316744 -6.691643 0
M  V30 34 H 8.778462 4.156615 -18.482296 0
M  V30 35 H 8.227336 3.491363 -21.064824 0
M  V30 36 H 6.524198 3.257106 -21.406941 0
M  V30 37 H 8.492131 3.311419 -16.061224 0
M  V30 38 H 8.453925 3.563947 -10.873571 0
M  V30 39 H 7.424048 4.728016 -10.103970 0
M  V30 40 H 7.501104 0.948054 -12.291594 0
M  V30 41 H 6.292840 2.228396 -12.302242 0
M  V30 42 H 10.106194 5.170989 -11.475332 0
M  V30 43 H 9.713165 5.159446 -9.747403 0
M  V30 44 H 8.151374 1.380182 -20.132389 0
M  V30 45 H 6.404030 1.431000 -19.912389 0
M  V30 46 H 9.034759 7.526682 -8.466722 0
M  V30 47 H 8.810957 9.118985 -9.111791 0
M  V30 48 H 8.309954 1.887913 -17.846197 0
M  V30 49 H 6.578354 2.194693 -17.783882 0
M  V30 50 H 10.151182 8.640677 -10.989840 0
M  V30 51 H 9.880820 5.083341 -15.153095 0
M  V30 52 H 9.600688 5.581195 -16.822579 0
M  V30 53 H 8.635027 6.266576 -15.491262 0
M  V30 54 H 6.319989 3.662271 -14.792179 0
M  V30 55 H 6.665770 5.345963 -14.739886 0
M  V30 56 H 12.634857 6.214271 -7.074366 0
M  V30 57 H 11.828511 7.208159 -5.902596 0
M  V30 58 H 6.329406 4.428108 -12.122463 0
M  V30 59 H 11.035527 9.769305 -8.580609 0
M  V30 60 H 5.682781 5.986382 -21.066795 0
M  V30 61 H 9.915501 6.685385 -6.776255 0
M  V30 62 H 6.648839 6.708332 -13.264232 0
M  V30 63 H 6.436544 6.667205 -11.567236 0
M  V30 64 H 5.882936 4.386300 -19.361633 0
M  V30 65 H 8.634806 2.325152 -14.207485 0
M  V30 66 H 9.040915 2.625661 -12.589356 0
M  V30 67 H 11.335977 6.369450 -9.491668 0
M  V30 68 H 11.891552 6.969278 -11.095811 0
M  V30 69 H 13.459121 7.442819 -9.268615 0
M  V30 70 H 12.728953 8.939962 -9.745166 0
M  V30 71 H 8.400567 5.860553 -20.333772 0
M  V30 72 H 8.183706 8.268492 -12.148800 0
M  V30 73 H 9.149143 7.012729 -12.918819 0
M  V30 74 H 8.400271 8.867524 -6.613079 0
M  V30 75 H 7.192531 6.332354 -18.252205 0
M  V30 76 H 8.257742 7.032129 -10.165510 0
M  V30 END ATOM
M  V30 BEGIN BOND
M  V30 1 1 6 5
M  V30 2 1 7 4
M  V30 3 1 8 2
M  V30 4 1 10 1
M  V30 5 1 10 8
M  V30 6 1 11 9
M  V30 7 1 12 3
M  V30 8 1 13 3
M  V30 9 1 15 4
M  V30 10 1 16 9
M  V30 11 1 18 14
M  V30 12 1 19 14
M  V30 13 1 19 16
M  V30 14 1 20 15
M  V30 15 1 21 1
M  V30 16 1 21 2
M  V30 17 1 22 5
M  V30 18 1 23 11
M  V30 19 1 24 1
M  V30 20 1 24 3
M  V30 21 1 25 19
M  V30 22 1 25 23
M  V30 23 1 26 17
M  V30 24 1 26 21
M  V30 25 1 27 20
M  V30 26 1 29 26
M  V30 27 1 19 30 CFG=1
M  V30 28 1 31 7
M  V30 29 1 31 11
M  V30 30 1 31 27
M  V30 31 1 32 13
M  V30 32 1 32 15
M  V30 33 1 32 22
M  V30 34 1 33 16
M  V30 35 1 33 28
M  V30 36 1 1 34 CFG=3
M  V30 37 1 35 2
M  V30 38 1 36 2
M  V30 39 1 3 37 CFG=3
M  V30 40 1 38 4
M  V30 41 1 39 4
M  V30 42 1 40 5
M  V30 43 1 41 5
M  V30 44 1 42 7
M  V30 45 1 43 7
M  V30 46 1 44 8
M  V30 47 1 45 8
M  V30 48 1 46 9
M  V30 49 1 47 9
M  V30 50 1 48 10
M  V30 51 1 49 10
M  V30 52 1 11 50 CFG=3
M  V30 53 1 51 12
M  V30 54 1 52 12
M  V30 55 1 53 12
M  V30 56 1 54 13
M  V30 57 1 55 13
M  V30 58 1 56 14
M  V30 59 1 57 14
M  V30 60 1 15 58 CFG=1
M  V30 61 1 16 59 CFG=3
M  V30 62 1 60 17
M  V30 63 1 61 18
M  V30 64 1 62 20
M  V30 65 1 63 20
M  V30 66 1 21 64 CFG=1
M  V30 67 1 65 22
M  V30 68 1 66 22
M  V30 69 1 67 23
M  V30 70 1 68 23
M  V30 71 1 69 25
M  V30 72 1 70 25
M  V30 73 1 71 26
M  V30 74 1 72 27
M  V30 75 1 73 27
M  V30 76 1 74 28
M  V30 77 1 75 29
M  V30 78 1 31 76 CFG=1
M  V30 END BOND
M  V30 END CTAB
M  END
>  <i_epik_Tot_Q>  (1) 
1

>  <i_epik_Tot_abs_Q>  (1) 
1

>  <i_i_glide_confnum>  (1) 
3021

>  <i_i_glide_lignum>  (1) 
141

>  <i_i_glide_posenum>  (1) 
96

>  <i_i_glide_rotatable_bonds>  (1) 
15

>  <i_lp_mmshare_version>  (1) 
72125

>  <i_m_source_file_index>  (1) 
71

>  <i_f3d_flags>  (1) 
0

>  <num_sample>  (1) 
100

>  <b_lp_Chiralities_Consistent>  (1) 
1

>  <r_epik_Charging_Adjusted_Penalty>  (1) 
0.025762522161214964

>  <r_epik_Ionization_Penalty>  (1) 
0.015537266588199847

>  <r_epik_Ionization_Penalty_Charging>  (1) 
0.0050933563181465155

>  <r_epik_Ionization_Penalty_Neutral>  (1) 
0.010443910270053331

>  <r_epik_State_Penalty>  (1) 
0.020669165843068448

>  <r_glide_ring_energy>  (1) 
0

>  <r_i_docking_score>  (1) 
-3.5432375346518215

>  <r_i_glide_ecoul>  (1) 
-5.1811796785220761

>  <r_i_glide_eff_state_penalty>  (1) 
0.020669165843068448

>  <r_i_glide_einternal>  (1) 
17.238292633267154

>  <r_i_glide_emodel>  (1) 
-17.58175658038104

>  <r_i_glide_emodel_strain>  (1) 
4.2267457543813549

>  <r_i_glide_energy>  (1) 
-19.393501587837687

>  <r_i_glide_erotb>  (1) 
0.82250602570520104

>  <r_i_glide_esite>  (1) 
-0.15304122036529133

>  <r_i_glide_evdw>  (1) 
-14.212321909315611

>  <r_i_glide_gscore>  (1) 
-3.5639067004948899

>  <r_i_glide_gscore_strain>  (1) 
0.056686438595338728

>  <r_i_glide_hbond>  (1) 
-0.20000000000000001

>  <r_i_glide_ligand_efficiency>  (1) 
-0.10737083438338853

>  <r_i_glide_ligand_efficiency_ln>  (1) 
-0.78799768180446217

>  <r_i_glide_ligand_efficiency_sa>  (1) 
-0.34439563732501499

>  <r_i_glide_lipo>  (1) 
-1.6106398182378123

>  <r_i_glide_metal>  (1) 
-0

>  <r_i_glide_rewards>  (1) 
-0.9916250789482336

>  <r_lp_Energy>  (1) 
61.015052999999995

>  <s_epik_Chemistry_Notes>  (1) 
This compound contains an acetal/aminal-like group ( X-CH(R)-Y where X, Y are N, S, or O) that may be acid/base labile, releasing an aldehyde.

>  <s_epik_cmdline>  (1) 
J2VwaWtfcHl0aG9uJywgJy1waHQnLCAnMS4wJywgJy1waCcsICc3LjQnLCAnLXRuJywgJzgnLCAnLW1hJywgJzUwMCcsICctaW1hZScsICc8aW5maWxlLm1hZT4nLCAnLW9tYWUnLCAnPG91dGZpbGUubWFlPic=

>  <s_epik_input>  (1) 
W09IXVtDSF0oW09IXSlbQ0BIXTFbQ0gyXVtDSDJdW0NIMl1bQ0BASF0xT1tDQEBIXShbQ0gzXSlbQ0gyXU4oW0NIMl1bQ0gyXUNsKVtDSF0yW0NIMl1bQ0gyXU4oW0NIMl1bQ0gyXTIpW0NASF0oW0NIMl1bQ0gyXTMpW0NIMl1bQ0BASF0oT1tPSF0pW0NAQF0zKEYpW0NIMl1bT0hd

>  <s_glide_docking_method>  (1) 
confgen

>  <s_i_glide_gridfile>  (1) 
gpcr_drd2_6luq_protein_autoprepared_prepared

>  <s_lp_Force_Field>  (1) 
S-OPLS

>  <s_lp_Variant>  (1) 
DiffSBDD_70_num_sample_100-1

>  <s_m_source_file>  (1) 
generated__ligand_DiffSBDD_2026-05-06_prepared.sdf

>  <GenAI_Model>  (1) 
DiffSBDD

>  <Protein>  (1) 
generic_title2

$$$$
DiffSBDD_6_num_sample_100
     RDKit          3D

  0  0  0  0  0  0  0  0  0  0999 V3000
M  V30 BEGIN CTAB
M  V30 COUNTS 65 68 0 0 1
M  V30 BEGIN ATOM
M  V30 1 N 7.294921 4.921930 -14.350581 0
M  V30 2 N 10.738957 7.784738 -8.930431 0
M  V30 3 C 10.928849 7.249272 -7.648050 0
M  V30 4 C 8.634755 6.218424 -7.410016 0
M  V30 5 C 6.832056 4.981276 -19.266332 0
M  V30 6 N 8.462568 6.439103 -11.019898 0 CFG=2 CHG=1
M  V30 7 C 7.950658 4.999795 -15.590462 0
M  V30 8 F 13.264217 7.393352 -7.891661 0
M  V30 9 C 6.020819 4.496252 -10.929268 0
M  V30 10 C 6.551347 3.733587 -13.963930 0
M  V30 11 C 9.220440 6.031278 -9.823368 0 CFG=1
M  V30 12 F 7.276022 5.904505 -20.119573 0
M  V30 13 C 8.200678 5.408856 -12.080641 0 CFG=2
M  V30 14 C 9.555395 7.518901 -9.703343 0 CFG=2
M  V30 15 C 9.559024 7.429549 -11.218628 0
M  V30 16 F 6.675469 3.841005 -19.939500 0
M  V30 17 C 10.276334 4.301888 -17.580217 0
M  V30 18 C 10.374732 4.622805 -16.291551 0
M  V30 19 C 7.825765 4.784983 -18.124387 0
M  V30 20 C 7.396923 5.936785 -13.288035 0 CFG=1
M  V30 21 F 12.429104 8.254691 -10.397243 0
M  V30 22 C 9.379580 5.389227 -15.515890 0
M  V30 23 C 9.139735 4.576274 -18.460737 0
M  V30 24 C 8.476541 5.390973 -8.674195 0
M  V30 25 C 7.627367 7.383272 -13.709886 0
M  V30 26 F 12.234810 8.730537 -6.459208 0
M  V30 27 C 10.012821 6.526228 -6.960105 0
M  V30 28 C 7.401171 4.177909 -11.560154 0 CFG=2
M  V30 29 C 7.291332 4.765172 -16.739380 0
M  V30 30 C 12.234223 7.536658 -7.054683 0
M  V30 31 C 7.215030 3.133578 -12.695640 0
M  V30 32 C 11.631872 8.799045 -9.480657 0
M  V30 33 F 5.634230 5.369362 -18.829423 0
M  V30 34 H 8.081890 5.768981 -6.586058 0
M  V30 35 H 8.234847 7.215581 -7.504453 0
M  V30 36 H 5.214503 4.514004 -11.660393 0
M  V30 37 H 5.758906 3.729914 -10.201043 0
M  V30 38 H 5.987496 5.462364 -10.425793 0
M  V30 39 H 5.504386 3.988198 -13.800080 0
M  V30 40 H 6.575782 2.995227 -14.767188 0
M  V30 41 H 10.087823 5.429852 -10.094429 0
M  V30 42 H 9.174234 5.049572 -12.412129 0
M  V30 43 H 8.813041 8.231191 -9.359630 0
M  V30 44 H 10.466693 7.018412 -11.670229 0
M  V30 45 H 9.274749 8.388293 -11.649539 0
M  V30 46 H 11.125506 3.801839 -18.023331 0
M  V30 47 H 11.279454 4.363522 -15.765583 0
M  V30 48 H 6.363945 6.006504 -12.948547 0
M  V30 49 H 9.442472 6.388418 -15.893022 0
M  V30 50 H 9.736693 5.407917 -14.489502 0
M  V30 51 H 9.356145 4.562824 -19.521537 0
M  V30 52 H 8.849553 4.384318 -8.489938 0
M  V30 53 H 7.419042 5.301204 -8.870819 0
M  V30 54 H 7.034896 8.039322 -13.077995 0
M  V30 55 H 8.634105 7.675818 -13.491742 0
M  V30 56 H 7.381371 7.592882 -14.750277 0
M  V30 57 H 10.266754 6.162414 -5.974859 0
M  V30 58 H 8.034188 3.769332 -10.780227 0
M  V30 59 H 6.242264 4.569310 -16.641427 0
M  V30 60 H 12.234830 6.768238 -6.281514 0
M  V30 61 H 6.638162 2.279793 -12.337385 0
M  V30 62 H 8.193283 2.737677 -12.972484 0
M  V30 63 H 11.064232 9.617800 -9.891636 0
M  V30 64 H 12.270266 9.284171 -8.744301 0
M  V30 65 H 7.621030 6.904435 -10.671703 0
M  V30 END ATOM
M  V30 BEGIN BOND
M  V30 1 1 3 2
M  V30 2 1 7 1
M  V30 3 1 10 1
M  V30 4 1 11 6
M  V30 5 1 12 5
M  V30 6 1 13 6
M  V30 7 1 14 2
M  V30 8 1 14 11
M  V30 9 1 15 6
M  V30 10 1 15 14
M  V30 11 1 16 5
M  V30 12 2 18 17
M  V30 13 1 19 5
M  V30 14 1 20 1
M  V30 15 1 20 13
M  V30 16 1 22 7
M  V30 17 1 22 18
M  V30 18 1 23 17
M  V30 19 2 23 19
M  V30 20 1 24 4
M  V30 21 1 24 11
M  V30 22 1 25 20
M  V30 23 2 27 3
M  V30 24 1 27 4
M  V30 25 1 28 9
M  V30 26 1 28 13
M  V30 27 2 29 7
M  V30 28 1 29 19
M  V30 29 1 30 3
M  V30 30 1 30 8
M  V30 31 1 30 26
M  V30 32 1 31 10
M  V30 33 1 31 28
M  V30 34 1 32 2
M  V30 35 1 32 21
M  V30 36 1 33 5
M  V30 37 1 34 4
M  V30 38 1 35 4
M  V30 39 1 36 9
M  V30 40 1 37 9
M  V30 41 1 38 9
M  V30 42 1 39 10
M  V30 43 1 40 10
M  V30 44 1 11 41 CFG=3
M  V30 45 1 13 42 CFG=3
M  V30 46 1 14 43 CFG=3
M  V30 47 1 44 15
M  V30 48 1 45 15
M  V30 49 1 46 17
M  V30 50 1 47 18
M  V30 51 1 20 48 CFG=1
M  V30 52 1 49 22
M  V30 53 1 50 22
M  V30 54 1 51 23
M  V30 55 1 52 24
M  V30 56 1 53 24
M  V30 57 1 54 25
M  V30 58 1 55 25
M  V30 59 1 56 25
M  V30 60 1 57 27
M  V30 61 1 28 58 CFG=1
M  V30 62 1 59 29
M  V30 63 1 60 30
M  V30 64 1 61 31
M  V30 65 1 62 31
M  V30 66 1 63 32
M  V30 67 1 64 32
M  V30 68 1 6 65 CFG=1
M  V30 END BOND
M  V30 END CTAB
M  END
>  <i_epik_Tot_Q>  (1) 
1

>  <i_epik_Tot_abs_Q>  (1) 
1

>  <i_i_glide_confnum>  (1) 
29

>  <i_i_glide_lignum>  (1) 
10

>  <i_i_glide_posenum>  (1) 
20

>  <i_i_glide_rotatable_bonds>  (1) 
5

>  <i_lp_mmshare_version>  (1) 
72125

>  <i_m_source_file_index>  (1) 
7

>  <i_f3d_flags>  (1) 
0

>  <num_sample>  (1) 
100

>  <b_lp_Chiralities_Consistent>  (1) 
1

>  <r_epik_Charging_Adjusted_Penalty>  (1) 
2.2946868864184928

>  <r_epik_Ionization_Penalty>  (1) 
1.147343534253078

>  <r_epik_Ionization_Penalty_Charging>  (1) 
1.1473434712357071

>  <r_epik_Ionization_Penalty_Neutral>  (1) 
6.301737089438289e-08

>  <r_epik_State_Penalty>  (1) 
1.1473434151827855

>  <r_glide_ring_energy>  (1) 
0.066861304234087426

>  <r_i_docking_score>  (1) 
-3.5345259390728945

>  <r_i_glide_ecoul>  (1) 
-7.5413284419920537

>  <r_i_glide_eff_state_penalty>  (1) 
1.1473434151827855

>  <r_i_glide_einternal>  (1) 
18.527185552013279

>  <r_i_glide_emodel>  (1) 
-11.924129282328991

>  <r_i_glide_emodel_strain>  (1) 
4.2292290237730867

>  <r_i_glide_energy>  (1) 
-18.489697110984885

>  <r_i_glide_erotb>  (1) 
0.17835229215497114

>  <r_i_glide_esite>  (1) 
-0.093772296495830881

>  <r_i_glide_evdw>  (1) 
-10.948368668992831

>  <r_i_glide_gscore>  (1) 
-4.6818693542556797

>  <r_i_glide_gscore_strain>  (1) 
0.057307255943271684

>  <r_i_glide_hbond>  (1) 
-0.18815023967677202

>  <r_i_glide_ligand_efficiency>  (1) 
-0.10710684663857256

>  <r_i_glide_ligand_efficiency_ln>  (1) 
-0.78606026805393669

>  <r_i_glide_ligand_efficiency_sa>  (1) 
-0.34354888757081958

>  <r_i_glide_lipo>  (1) 
-1.2681458380391157

>  <r_i_glide_metal>  (1) 
-0

>  <r_i_glide_rewards>  (1) 
-1.6888428283937549

>  <r_lp_Energy>  (1) 
64.529619999999994

>  <s_epik_Chemistry_Notes>  (1) 
This compound has an imine and may undergo hydrolysis.

>  <s_epik_cmdline>  (1) 
J2VwaWtfcHl0aG9uJywgJy1waHQnLCAnMS4wJywgJy1waCcsICc3LjQnLCAnLXRuJywgJzgnLCAnLW1hJywgJzUwMCcsICctaW1hZScsICc8aW5maWxlLm1hZT4nLCAnLW9tYWUnLCAnPG91dGZpbGUubWFlPic=

>  <s_epik_input>  (1) 
W0NIMl0xW0NIXT1bQ0hdW0NIXT1DKEMoRikoRilGKVtDSF09QzFOMltDSDJdW0NIMl1bQ0BIXShbQ0gzXSlbQ0BASF0oW0NASF0yW0NIM10pTjNbQ0gyXVtDQEBIXShbQ0BIXTM0KU4oW0NIMl1GKUMoW0NIXShGKUYpPVtDSF1bQ0gyXVtDSDJdNA==

>  <s_glide_docking_method>  (1) 
confgen

>  <s_i_glide_gridfile>  (1) 
gpcr_drd2_6luq_protein_autoprepared_prepared

>  <s_lp_Force_Field>  (1) 
S-OPLS

>  <s_lp_Variant>  (1) 
DiffSBDD_6_num_sample_100-2

>  <s_m_source_file>  (1) 
generated__ligand_DiffSBDD_2026-05-06_prepared.sdf

>  <GenAI_Model>  (1) 
DiffSBDD

>  <Protein>  (1) 
generic_title2

$$$$
DiffSBDD_52_num_sample_100
     RDKit          3D

  0  0  0  0  0  0  0  0  0  0999 V3000
M  V30 BEGIN CTAB
M  V30 COUNTS 52 54 0 0 1
M  V30 BEGIN ATOM
M  V30 1 C 9.236581 5.669885 -9.509183 0
M  V30 2 N 6.253000 6.271236 -20.150885 0
M  V30 3 C 6.851173 4.529179 -12.288650 0
M  V30 4 C 4.881363 6.225376 -20.641502 0
M  V30 5 N 9.434794 7.122814 -9.407755 0 CHG=1
M  V30 6 N 7.832367 3.031933 -15.094855 0 CHG=-1
M  V30 7 O 5.834510 4.584937 -18.691679 0
M  V30 8 C 4.963889 6.862673 -22.026728 0 CFG=2
M  V30 9 C 5.561153 9.194108 -21.285455 0
M  V30 10 C 6.645034 5.389093 -19.144972 0
M  V30 11 N 7.029032 1.399638 -16.504003 0
M  V30 12 C 7.348329 4.889929 -11.019252 0
M  V30 13 C 7.695825 4.572671 -13.416354 0
M  V30 14 C 5.204089 5.764520 -23.073668 0
M  V30 15 C 6.118439 7.886150 -21.888728 0
M  V30 16 N 7.401714 2.491097 -18.549220 0
M  V30 17 C 7.091388 7.228064 -20.890145 0
M  V30 18 C 9.536059 5.339375 -12.007533 0
M  V30 19 C 7.782377 3.253845 -17.546607 0
M  V30 20 C 8.461453 4.624330 -17.682489 0
M  V30 21 C 7.562659 2.574892 -16.326813 0
M  V30 22 O 7.210953 4.222324 -14.649174 0
M  V30 23 C 8.694379 5.291730 -10.876430 0
M  V30 24 O 6.908452 1.323237 -17.913219 0
M  V30 25 C 9.037255 4.982614 -13.274044 0
M  V30 26 O 8.783623 6.554365 -19.014901 0 CHG=-1
M  V30 27 N 7.982827 5.518778 -18.658009 0
M  V30 28 O 9.432552 4.912302 -16.973549 0
M  V30 29 C 6.825392 8.253838 -23.206012 0
M  V30 30 H 8.543595 5.352321 -8.727295 0
M  V30 31 H 10.182398 5.161592 -9.323128 0
M  V30 32 H 5.823486 4.217461 -12.397691 0
M  V30 33 H 4.464478 5.217176 -20.686968 0
M  V30 34 H 4.243001 6.812729 -19.978855 0
M  V30 35 H 9.815428 7.366713 -8.507221 0
M  V30 36 H 10.017777 7.455924 -10.159410 0
M  V30 37 H 4.024450 7.359135 -22.274651 0
M  V30 38 H 5.086028 9.032189 -20.317124 0
M  V30 39 H 6.362975 9.916213 -21.134611 0
M  V30 40 H 4.822956 9.654710 -21.942776 0
M  V30 41 H 6.698253 4.853918 -10.156176 0
M  V30 42 H 6.133749 5.224878 -22.890673 0
M  V30 43 H 4.390952 5.038672 -23.082752 0
M  V30 44 H 5.256499 6.198283 -24.063840 0
M  V30 45 H 7.504158 8.035405 -20.286400 0
M  V30 46 H 7.893648 6.700223 -21.409042 0
M  V30 47 H 10.565359 5.647164 -11.905094 0
M  V30 48 H 9.684180 5.017165 -14.139180 0
M  V30 49 H 7.286668 7.389264 -23.683600 0
M  V30 50 H 6.121211 8.696741 -23.907495 0
M  V30 51 H 7.620269 8.981523 -23.036412 0
M  V30 52 H 8.490507 7.530076 -9.491448 0
M  V30 END ATOM
M  V30 BEGIN BOND
M  V30 1 1 4 2
M  V30 2 1 5 1
M  V30 3 1 8 4
M  V30 4 1 10 2
M  V30 5 2 10 7
M  V30 6 2 12 3
M  V30 7 1 13 3
M  V30 8 1 14 8
M  V30 9 1 15 8
M  V30 10 1 15 9
M  V30 11 1 17 2
M  V30 12 1 17 15
M  V30 13 2 19 16
M  V30 14 1 20 19
M  V30 15 1 21 6
M  V30 16 2 21 11
M  V30 17 1 21 19
M  V30 18 1 22 6
M  V30 19 1 22 13
M  V30 20 1 23 1
M  V30 21 1 23 12
M  V30 22 2 23 18
M  V30 23 1 24 11
M  V30 24 1 24 16
M  V30 25 2 25 13
M  V30 26 1 25 18
M  V30 27 1 27 10
M  V30 28 1 27 20
M  V30 29 1 27 26
M  V30 30 2 28 20
M  V30 31 1 29 15
M  V30 32 1 30 1
M  V30 33 1 31 1
M  V30 34 1 32 3
M  V30 35 1 33 4
M  V30 36 1 34 4
M  V30 37 1 35 5
M  V30 38 1 36 5
M  V30 39 1 8 37 CFG=3
M  V30 40 1 38 9
M  V30 41 1 39 9
M  V30 42 1 40 9
M  V30 43 1 41 12
M  V30 44 1 42 14
M  V30 45 1 43 14
M  V30 46 1 44 14
M  V30 47 1 45 17
M  V30 48 1 46 17
M  V30 49 1 47 18
M  V30 50 1 48 25
M  V30 51 1 49 29
M  V30 52 1 50 29
M  V30 53 1 51 29
M  V30 54 1 52 5
M  V30 END BOND
M  V30 END CTAB
M  END
>  <i_epik_Tot_Q>  (1) 
-1

>  <i_epik_Tot_abs_Q>  (1) 
3

>  <i_i_glide_confnum>  (1) 
104

>  <i_i_glide_lignum>  (1) 
97

>  <i_i_glide_posenum>  (1) 
397

>  <i_i_glide_rotatable_bonds>  (1) 
8

>  <i_lp_mmshare_version>  (1) 
72125

>  <i_m_source_file_index>  (1) 
53

>  <i_f3d_flags>  (1) 
0

>  <num_sample>  (1) 
100

>  <b_lp_Chiralities_Consistent>  (1) 
1

>  <r_epik_Charging_Adjusted_Penalty>  (1) 
0.51570556824874214

>  <r_epik_Ionization_Penalty>  (1) 
0.2980209657670958

>  <r_epik_Ionization_Penalty_Charging>  (1) 
0.29800273114257281

>  <r_epik_Ionization_Penalty_Neutral>  (1) 
1.8234624523001942e-05

>  <r_epik_State_Penalty>  (1) 
0.21770283710616928

>  <r_glide_ring_energy>  (1) 
0.88900172443488756

>  <r_i_docking_score>  (1) 
-3.5242533882771032

>  <r_i_glide_ecoul>  (1) 
-4.4886721948666262

>  <r_i_glide_eff_state_penalty>  (1) 
0.21770283710616928

>  <r_i_glide_einternal>  (1) 
30.559178283628199

>  <r_i_glide_emodel>  (1) 
-26.423214620642021

>  <r_i_glide_emodel_strain>  (1) 
0.070404794833933693

>  <r_i_glide_energy>  (1) 
-32.725770415005918

>  <r_i_glide_erotb>  (1) 
0.84444989797040115

>  <r_i_glide_esite>  (1) 
-0.10000000000000001

>  <r_i_glide_evdw>  (1) 
-28.237098220139291

>  <r_i_glide_gscore>  (1) 
-3.7419562253832725

>  <r_i_glide_gscore_strain>  (1) 
0

>  <r_i_glide_hbond>  (1) 
-0.20000000000000001

>  <r_i_glide_ligand_efficiency>  (1) 
-0.121525978906107

>  <r_i_glide_ligand_efficiency_ln>  (1) 
-0.80696465856035626

>  <r_i_glide_ligand_efficiency_sa>  (1) 
-0.37336630975117596

>  <r_i_glide_lipo>  (1) 
-0.95417205005858263

>  <r_i_glide_metal>  (1) 
-0

>  <r_i_glide_rewards>  (1) 
-1.2470783330581321

>  <r_lp_Energy>  (1) 
53.846633999999995

>  <s_epik_cmdline>  (1) 
J2VwaWtfcHl0aG9uJywgJy1waHQnLCAnMS4wJywgJy1waCcsICc3LjQnLCAnLXRuJywgJzgnLCAnLW1hJywgJzUwMCcsICctaW1hZScsICc8aW5maWxlLm1hZT4nLCAnLW9tYWUnLCAnPG91dGZpbGUubWFlPic=

>  <s_epik_input>  (1) 
W05IMl1bQ0gyXWMoW2NIXVtjSF0xKVtjSF1bY0hdYzFPL049YzIvW25IXW9uYzJDKD1PKU4oW09IXSlDKD1PKU4oW0NIMl0zKVtDSDJdW0NASF0oW0NIM10pQzMoW0NIM10pW0NIM10=

>  <s_glide_docking_method>  (1) 
confgen

>  <s_i_glide_gridfile>  (1) 
gpcr_drd2_6luq_protein_autoprepared_prepared

>  <s_lp_Force_Field>  (1) 
S-OPLS

>  <s_lp_Variant>  (1) 
DiffSBDD_52_num_sample_100-1

>  <s_m_source_file>  (1) 
generated__ligand_DiffSBDD_2026-05-06_prepared.sdf

>  <GenAI_Model>  (1) 
DiffSBDD

>  <Protein>  (1) 
generic_title2

$$$$
DiffSBDD_80_num_sample_100
     RDKit          3D

  0  0  0  0  0  0  0  0  0  0999 V3000
M  V30 BEGIN CTAB
M  V30 COUNTS 57 60 0 0 1
M  V30 BEGIN ATOM
M  V30 1 C 7.754141 1.210972 -18.146722 0
M  V30 2 C 6.337629 4.690583 -14.907803 0
M  V30 3 O 9.956698 3.045767 -19.721605 0
M  V30 4 C 7.871896 4.526246 -11.318262 0
M  V30 5 C 10.473674 2.982946 -18.606900 0
M  V30 6 C 7.495505 6.411722 -13.465228 0
M  V30 7 C 9.631558 2.834300 -17.336097 0
M  V30 8 C 11.984529 3.054240 -18.430718 0
M  V30 9 C 6.803988 5.259516 -17.168202 0
M  V30 10 C 7.275046 2.969944 -16.273451 0 CFG=2
M  V30 11 C 7.967836 6.856596 -12.114666 0 CFG=1
M  V30 12 O 11.834839 7.750333 -7.617238 0 CHG=-1
M  V30 13 C 9.034841 6.224825 -10.014737 0
M  V30 14 C 7.877510 2.364872 -14.989529 0
M  V30 15 C 8.280168 5.783451 -11.129033 0
M  V30 16 C 10.053342 6.125714 -7.702096 0
M  V30 17 C 7.225785 4.106634 -12.571340 0
M  V30 18 F 11.090852 5.329377 -7.491656 0
M  V30 19 C 7.056786 5.003663 -13.610255 0
M  V30 20 C 8.100030 -0.035262 -17.318995 0
M  V30 21 C 9.238736 5.548021 -8.874561 0
M  V30 22 C 9.574946 7.504240 -10.213571 0
M  V30 23 C 8.110868 2.597868 -17.543508 0 CFG=2
M  V30 24 O 7.434837 7.228582 -14.381661 0
M  V30 25 S 9.249934 8.169301 -11.822298 0
M  V30 26 N 7.224926 4.426902 -16.037967 0
M  V30 27 F 9.308260 6.076131 -6.598077 0
M  V30 28 C 6.783042 2.714426 -12.707756 0
M  V30 29 C 6.994626 1.955746 -13.811282 0
M  V30 30 C 10.276918 8.169754 -9.270712 0
M  V30 31 C 10.550835 7.630259 -7.861984 0 CFG=2
M  V30 32 H 6.686644 1.189066 -18.368826 0
M  V30 33 H 8.243631 1.111783 -19.115838 0
M  V30 34 H 5.652502 3.883029 -14.691666 0
M  V30 35 H 5.674481 5.531187 -15.119526 0
M  V30 36 H 8.100613 3.779684 -10.578708 0
M  V30 37 H 10.061504 2.037393 -16.731628 0
M  V30 38 H 9.772779 3.753430 -16.766541 0
M  V30 39 H 12.240962 3.749823 -17.631615 0
M  V30 40 H 12.458480 3.394916 -19.350919 0
M  V30 41 H 12.381450 2.071569 -18.177581 0
M  V30 42 H 7.538524 5.257452 -17.971544 0
M  V30 43 H 6.728490 6.302231 -16.856923 0
M  V30 44 H 5.835729 4.969301 -17.573657 0
M  V30 45 H 6.274199 2.567319 -16.415996 0
M  V30 46 H 7.068420 7.313444 -11.700441 0
M  V30 47 H 8.447390 1.468968 -15.217030 0
M  V30 48 H 8.634769 3.045602 -14.604683 0
M  V30 49 H 7.914493 -0.940101 -17.897425 0
M  V30 50 H 7.484199 -0.109381 -16.423281 0
M  V30 51 H 9.148639 -0.050339 -17.025737 0
M  V30 52 H 8.812592 4.569323 -8.735763 0
M  V30 53 H 7.795518 3.256883 -18.348137 0
M  V30 54 H 6.234843 2.274073 -11.891648 0
M  V30 55 H 6.607291 0.947424 -13.837470 0
M  V30 56 H 10.664021 9.152861 -9.491496 0
M  V30 57 H 9.840058 8.224052 -7.283579 0
M  V30 END ATOM
M  V30 BEGIN BOND
M  V30 1 2 5 3
M  V30 2 1 7 5
M  V30 3 1 8 5
M  V30 4 1 11 6
M  V30 5 1 14 10
M  V30 6 2 15 4
M  V30 7 1 15 11
M  V30 8 1 15 13
M  V30 9 1 17 4
M  V30 10 1 18 16
M  V30 11 1 19 2
M  V30 12 1 19 6
M  V30 13 2 19 17
M  V30 14 1 20 1
M  V30 15 2 21 13
M  V30 16 1 21 16
M  V30 17 1 22 13
M  V30 18 1 23 1
M  V30 19 1 23 7
M  V30 20 1 23 10
M  V30 21 2 24 6
M  V30 22 1 25 11
M  V30 23 1 25 22
M  V30 24 1 26 2
M  V30 25 1 26 9
M  V30 26 1 26 10
M  V30 27 1 27 16
M  V30 28 1 28 17
M  V30 29 1 29 14
M  V30 30 2 29 28
M  V30 31 2 30 22
M  V30 32 1 31 12
M  V30 33 1 31 16
M  V30 34 1 31 30
M  V30 35 1 32 1
M  V30 36 1 33 1
M  V30 37 1 34 2
M  V30 38 1 35 2
M  V30 39 1 36 4
M  V30 40 1 37 7
M  V30 41 1 38 7
M  V30 42 1 39 8
M  V30 43 1 40 8
M  V30 44 1 41 8
M  V30 45 1 42 9
M  V30 46 1 43 9
M  V30 47 1 44 9
M  V30 48 1 10 45 CFG=3
M  V30 49 1 11 46 CFG=1
M  V30 50 1 47 14
M  V30 51 1 48 14
M  V30 52 1 49 20
M  V30 53 1 50 20
M  V30 54 1 51 20
M  V30 55 1 52 21
M  V30 56 1 23 53 CFG=3
M  V30 57 1 54 28
M  V30 58 1 55 29
M  V30 59 1 56 30
M  V30 60 1 31 57 CFG=1
M  V30 END BOND
M  V30 END CTAB
M  END
>  <i_epik_Tot_Q>  (1) 
-1

>  <i_epik_Tot_abs_Q>  (1) 
1

>  <i_i_glide_confnum>  (1) 
3

>  <i_i_glide_lignum>  (1) 
162

>  <i_i_glide_posenum>  (1) 
20

>  <i_i_glide_rotatable_bonds>  (1) 
4

>  <i_lp_mmshare_version>  (1) 
72125

>  <i_m_source_file_index>  (1) 
81

>  <i_f3d_flags>  (1) 
0

>  <num_sample>  (1) 
100

>  <b_lp_Chiralities_Consistent>  (1) 
1

>  <r_epik_Charging_Adjusted_Penalty>  (1) 
8.7803366933407872e-06

>  <r_epik_Ionization_Penalty>  (1) 
0.00048743314384941063

>  <r_epik_Ionization_Penalty_Charging>  (1) 
8.7803366933407872e-06

>  <r_epik_Ionization_Penalty_Neutral>  (1) 
0.00047865280715606983

>  <r_epik_State_Penalty>  (1) 
-0

>  <r_glide_ring_energy>  (1) 
0

>  <r_i_docking_score>  (1) 
-3.5154335909320644

>  <r_i_glide_ecoul>  (1) 
-0.47984358538515809

>  <r_i_glide_eff_state_penalty>  (1) 
-0

>  <r_i_glide_einternal>  (1) 
2.0720661468463799

>  <r_i_glide_emodel>  (1) 
-28.323007656265681

>  <r_i_glide_emodel_strain>  (1) 
0.098438962085396042

>  <r_i_glide_energy>  (1) 
-25.851790309225422

>  <r_i_glide_erotb>  (1) 
0.20077648214602295

>  <r_i_glide_esite>  (1) 
-0.0275043053752594

>  <r_i_glide_evdw>  (1) 
-25.371946723840264

>  <r_i_glide_gscore>  (1) 
-3.5154335909320644

>  <r_i_glide_gscore_strain>  (1) 
0

>  <r_i_glide_hbond>  (1) 
0

>  <r_i_glide_ligand_efficiency>  (1) 
-0.11340108357845369

>  <r_i_glide_ligand_efficiency_ln>  (1) 
-0.79283800985624631

>  <r_i_glide_ligand_efficiency_sa>  (1) 
-0.35623596991357381

>  <r_i_glide_lipo>  (1) 
-1.1110497009710603

>  <r_i_glide_metal>  (1) 
-0

>  <r_i_glide_rewards>  (1) 
-1.2370821927319806

>  <r_lp_Energy>  (1) 
52.707561999999996

>  <r_lp_tautomer_probability>  (1) 
1

>  <s_epik_cmdline>  (1) 
J2VwaWtfcHl0aG9uJywgJy1waHQnLCAnMS4wJywgJy1waCcsICc3LjQnLCAnLXRuJywgJzgnLCAnLW1hJywgJzUwMCcsICctaW1hZScsICc8aW5maWxlLm1hZT4nLCAnLW9tYWUnLCAnPG91dGZpbGUubWFlPic=

>  <s_epik_input>  (1) 
Tz1DKFtDSDNdKVtDSDJdW0NAQEhdKFtDSDJdW0NIM10pW0NAQEhdKFtDSDJdL1tDSF09W0NIXVwxKU4oW0NIM10pW0NIMl1DKEMyPU8pPUMxW0NIXT1DKFtDQEhdMjMpQz00QyhTMyk9W0NIXVtDQEhdKFtPSF0pQyhGKShGKVtDSF00

>  <s_glide_docking_method>  (1) 
confgen

>  <s_i_glide_gridfile>  (1) 
gpcr_drd2_6luq_protein_autoprepared_prepared

>  <s_lp_Force_Field>  (1) 
S-OPLS

>  <s_lp_Variant>  (1) 
DiffSBDD_80_num_sample_100-1

>  <s_m_source_file>  (1) 
generated__ligand_DiffSBDD_2026-05-06_prepared.sdf

>  <GenAI_Model>  (1) 
DiffSBDD

>  <Protein>  (1) 
generic_title2

$$$$
DiffSBDD_82_num_sample_100
     RDKit          3D

  0  0  0  0  0  0  0  0  0  0999 V3000
M  V30 BEGIN CTAB
M  V30 COUNTS 64 68 0 0 1
M  V30 BEGIN ATOM
M  V30 1 C 6.921535 1.302164 -13.574044 0
M  V30 2 N 13.866678 8.408575 -19.831292 0
M  V30 3 C 7.932300 3.190681 -18.058594 0
M  V30 4 C 7.235569 4.175546 -13.903277 0
M  V30 5 O 7.166520 6.132488 -15.969182 0
M  V30 6 C 6.033027 2.401837 -12.977388 0
M  V30 7 O 14.268451 8.081364 -17.617654 0
M  V30 8 C 8.886867 5.653122 -19.690646 0 CFG=2
M  V30 9 C 9.923422 6.925964 -21.750756 0
M  V30 10 C 13.008417 6.028888 -17.531742 0
M  V30 11 F 5.841427 0.035954 -11.855633 0
M  V30 12 C 12.058498 6.912189 -20.271570 0 CFG=1
M  V30 13 C 11.501308 5.649690 -19.571203 0 CFG=1
M  V30 14 F 13.656890 4.750541 -19.378940 0
M  V30 15 C 12.591124 5.061348 -18.638753 0
M  V30 16 F 8.235285 0.191395 -15.111858 0
M  V30 17 C 7.624337 5.617826 -18.769084 0 CFG=1
M  V30 18 C 7.434301 3.816303 -15.351027 0
M  V30 19 C 6.292411 5.476201 -19.531931 0
M  V30 20 C 7.651286 2.462011 -15.734452 0
M  V30 21 C 7.424875 4.839575 -16.334057 0
M  V30 22 O 6.937321 0.169335 -12.807263 0
M  V30 23 C 14.634909 8.589159 -18.827170 0
M  V30 24 C 13.043173 7.505237 -17.910032 0 CFG=2
M  V30 25 C 10.160055 5.906403 -18.842628 0
M  V30 26 C 7.666403 4.522213 -17.691953 0
M  V30 27 C 15.936687 9.328964 -18.862307 0
M  V30 28 C 11.033165 7.738682 -21.071506 0
M  V30 29 N 12.787566 7.769477 -19.332310 0
M  V30 30 C 13.311065 5.609059 -16.291866 0
M  V30 31 C 7.592620 1.319535 -14.762453 0
M  V30 32 C 8.713062 6.690982 -20.830552 0
M  V30 33 F 12.133033 3.915751 -18.127611 0
M  V30 34 C 7.928874 2.172680 -17.090409 0
M  V30 35 N 5.945181 3.744520 -13.491631 0
M  V30 36 H 8.121184 2.943348 -19.092007 0
M  V30 37 H 7.295738 5.250998 -13.747763 0
M  V30 38 H 8.032294 3.757744 -13.284320 0
M  V30 39 H 6.859085 6.217435 -15.080765 0
M  V30 40 H 5.034792 1.997122 -13.091679 0
M  V30 41 H 6.234870 2.471439 -11.908614 0
M  V30 42 H 8.991319 4.679364 -20.168981 0
M  V30 43 H 9.572794 7.501518 -22.608488 0
M  V30 44 H 10.302703 5.991000 -22.163448 0
M  V30 45 H 12.787888 6.542893 -20.994804 0
M  V30 46 H 11.318738 4.893079 -20.335326 0
M  V30 47 H 7.589458 6.594207 -18.287946 0
M  V30 48 H 5.455088 5.425657 -18.834319 0
M  V30 49 H 6.270251 4.568803 -20.135910 0
M  V30 50 H 6.094510 6.325948 -20.184401 0
M  V30 51 H 12.270778 8.024298 -17.341508 0
M  V30 52 H 10.131690 5.269344 -17.960729 0
M  V30 53 H 10.132479 6.921376 -18.459592 0
M  V30 54 H 16.026915 9.922805 -19.772812 0
M  V30 55 H 16.776379 8.635689 -18.821948 0
M  V30 56 H 16.013571 10.007233 -18.011598 0
M  V30 57 H 10.578505 8.493526 -20.426940 0
M  V30 58 H 11.575790 8.306707 -21.828060 0
M  V30 59 H 13.276214 4.561195 -16.032684 0
M  V30 60 H 13.596839 6.310442 -15.521582 0
M  V30 61 H 7.900844 6.361908 -21.478568 0
M  V30 62 H 8.389102 7.645388 -20.413075 0
M  V30 63 H 8.111479 1.151967 -17.393608 0
M  V30 64 H 5.555212 4.368266 -12.797882 0
M  V30 END ATOM
M  V30 BEGIN BOND
M  V30 1 1 6 1
M  V30 2 1 13 12
M  V30 3 1 15 10
M  V30 4 1 15 13
M  V30 5 1 15 14
M  V30 6 1 17 8
M  V30 7 1 18 4
M  V30 8 1 19 17
M  V30 9 2 20 18
M  V30 10 1 21 5
M  V30 11 1 21 18
M  V30 12 1 22 1
M  V30 13 1 22 11
M  V30 14 2 23 2
M  V30 15 1 23 7
M  V30 16 1 24 7
M  V30 17 1 24 10
M  V30 18 1 25 8
M  V30 19 1 25 13
M  V30 20 1 26 3
M  V30 21 1 26 17
M  V30 22 2 26 21
M  V30 23 1 27 23
M  V30 24 1 28 9
M  V30 25 1 28 12
M  V30 26 1 29 2
M  V30 27 1 29 12
M  V30 28 1 29 24
M  V30 29 2 30 10
M  V30 30 2 31 1
M  V30 31 1 31 16
M  V30 32 1 31 20
M  V30 33 1 32 8
M  V30 34 1 32 9
M  V30 35 1 33 15
M  V30 36 2 34 3
M  V30 37 1 34 20
M  V30 38 1 35 4
M  V30 39 1 35 6
M  V30 40 1 36 3
M  V30 41 1 37 4
M  V30 42 1 38 4
M  V30 43 1 39 5
M  V30 44 1 40 6
M  V30 45 1 41 6
M  V30 46 1 8 42 CFG=3
M  V30 47 1 43 9
M  V30 48 1 44 9
M  V30 49 1 12 45 CFG=3
M  V30 50 1 13 46 CFG=3
M  V30 51 1 17 47 CFG=1
M  V30 52 1 48 19
M  V30 53 1 49 19
M  V30 54 1 50 19
M  V30 55 1 24 51 CFG=1
M  V30 56 1 52 25
M  V30 57 1 53 25
M  V30 58 1 54 27
M  V30 59 1 55 27
M  V30 60 1 56 27
M  V30 61 1 57 28
M  V30 62 1 58 28
M  V30 63 1 59 30
M  V30 64 1 60 30
M  V30 65 1 61 32
M  V30 66 1 62 32
M  V30 67 1 63 34
M  V30 68 1 64 35
M  V30 END BOND
M  V30 END CTAB
M  END
>  <i_epik_Tot_Q>  (1) 
0

>  <i_epik_Tot_abs_Q>  (1) 
0

>  <i_i_glide_confnum>  (1) 
1

>  <i_i_glide_lignum>  (1) 
167

>  <i_i_glide_posenum>  (1) 
90

>  <i_i_glide_rotatable_bonds>  (1) 
4

>  <i_lp_mmshare_version>  (1) 
72125

>  <i_m_source_file_index>  (1) 
83

>  <i_f3d_flags>  (1) 
0

>  <num_sample>  (1) 
100

>  <b_lp_Chiralities_Consistent>  (1) 
1

>  <r_epik_Charging_Adjusted_Penalty>  (1) 
0.046558445642634526

>  <r_epik_Ionization_Penalty>  (1) 
0.046507495434493687

>  <r_epik_Ionization_Penalty_Charging>  (1) 
0

>  <r_epik_Ionization_Penalty_Neutral>  (1) 
0.046507495434493687

>  <r_epik_State_Penalty>  (1) 
0.046558445642634526

>  <r_glide_ring_energy>  (1) 
0

>  <r_i_docking_score>  (1) 
-3.5118592871832659

>  <r_i_glide_ecoul>  (1) 
-0.75040671024373418

>  <r_i_glide_eff_state_penalty>  (1) 
0.046558445642634526

>  <r_i_glide_einternal>  (1) 
0.21130937306938158

>  <r_i_glide_emodel>  (1) 
-33.338939560287955

>  <r_i_glide_emodel_strain>  (1) 
1.9426326154096358

>  <r_i_glide_energy>  (1) 
-29.611709139941802

>  <r_i_glide_erotb>  (1) 
0.1660487774470758

>  <r_i_glide_esite>  (1) 
-0.040770705335403383

>  <r_i_glide_evdw>  (1) 
-28.861302429698068

>  <r_i_glide_gscore>  (1) 
-3.5584177328259003

>  <r_i_glide_gscore_strain>  (1) 
0

>  <r_i_glide_hbond>  (1) 
0

>  <r_i_glide_ligand_efficiency>  (1) 
-0.10033883677666473

>  <r_i_glide_ligand_efficiency_ln>  (1) 
-0.7709310550542281

>  <r_i_glide_ligand_efficiency_sa>  (1) 
-0.32821498858365994

>  <r_i_glide_lipo>  (1) 
-1.9518416500424316

>  <r_i_glide_metal>  (1) 
-0

>  <r_i_glide_rewards>  (1) 
-0.17622802687367678

>  <r_lp_Energy>  (1) 
60.372588

>  <r_lp_tautomer_probability>  (1) 
0.99999999486000002

>  <s_epik_Chemistry_Notes>  (1) 
This compound has an imine and may undergo hydrolysis. This compound contains an acetal/aminal-like group ( X-CH(R)-Y where X, Y are N, S, or O) that may be acid/base labile, releasing an aldehyde.

>  <s_epik_cmdline>  (1) 
J2VwaWtfcHl0aG9uJywgJy1waHQnLCAnMS4wJywgJy1waCcsICc3LjQnLCAnLXRuJywgJzgnLCAnLW1hJywgJzUwMCcsICctaW1hZScsICc8aW5maWxlLm1hZT4nLCAnLW9tYWUnLCAnPG91dGZpbGUubWFlPic=

>  <s_epik_input>  (1) 
W0NIMl0xW05IXVtDSDJdQyhPRik9QyhGKWMoYzEyKVtjSF1bY0hdYyhjMltPSF0pW0NASF0oW0NIM10pW0NAQEhdKFtDSDJdW0NIMl1bQ0gyXTMpW0NIMl1bQ0BASF0oW0NAQEhdMzQpQyhGKShGKUMoPVtDSDJdKVtDQEBIXTVONE49QyhPNSlbQ0gzXQ==

>  <s_glide_docking_method>  (1) 
confgen

>  <s_i_glide_gridfile>  (1) 
gpcr_drd2_6luq_protein_autoprepared_prepared

>  <s_lp_Force_Field>  (1) 
S-OPLS

>  <s_lp_Variant>  (1) 
DiffSBDD_82_num_sample_100-1

>  <s_m_source_file>  (1) 
generated__ligand_DiffSBDD_2026-05-06_prepared.sdf

>  <GenAI_Model>  (1) 
DiffSBDD

>  <Protein>  (1) 
generic_title2

$$$$
DiffSBDD_79_num_sample_100
     RDKit          3D

  0  0  0  0  0  0  0  0  0  0999 V3000
M  V30 BEGIN CTAB
M  V30 COUNTS 54 57 0 0 1
M  V30 BEGIN ATOM
M  V30 1 C 8.822134 4.575838 -13.463768 0
M  V30 2 C 7.850929 3.294274 -15.417255 0
M  V30 3 O 6.242879 0.881370 -15.222246 0
M  V30 4 C 3.435061 9.440391 -21.375009 0
M  V30 5 C 4.524303 8.673337 -21.296331 0
M  V30 6 C 6.699934 1.352328 -14.154693 0
M  V30 7 C 7.289972 4.959155 -20.034121 0
M  V30 8 C 5.097685 6.252462 -20.217421 0 CFG=1
M  V30 9 C 3.101790 10.325139 -22.504153 0
M  V30 10 C 6.139498 5.439651 -20.958912 0
M  V30 11 S 8.838160 4.715451 -15.314999 0
M  V30 12 C 5.347935 11.157823 -23.142511 0
M  V30 13 C 5.586686 8.732500 -22.309177 0
M  V30 14 F 6.128861 12.168707 -23.531804 0
M  V30 15 C 5.804642 7.287518 -19.355694 0 CFG=1
M  V30 16 C 4.034397 11.436405 -22.810143 0
M  V30 17 C 4.631271 7.708955 -20.147008 0 CFG=1
M  V30 18 C 8.227635 2.297955 -18.874330 0
M  V30 19 O 6.554193 0.908522 -12.994159 0 CHG=-1
M  V30 20 C 8.121914 3.238707 -13.008959 0
M  V30 21 C 5.933428 9.794787 -23.105194 0
M  V30 22 C 7.567344 2.667349 -14.286060 0
M  V30 23 C 6.775738 5.750450 -17.619554 0
M  V30 24 N 7.435035 2.928402 -16.699619 0
M  V30 25 O 3.401679 12.518999 -22.778732 0 CHG=-1
M  V30 26 C 7.906221 3.498923 -17.965497 0 CFG=2
M  V30 27 C 5.770868 6.875973 -17.912632 0
M  V30 28 C 6.886999 4.520931 -18.582760 0 CFG=2
M  V30 29 H 8.273298 5.431721 -13.069424 0
M  V30 30 H 9.837540 4.636857 -13.073230 0
M  V30 31 H 2.682480 9.363897 -20.605487 0
M  V30 32 H 7.760988 4.152058 -20.585824 0
M  V30 33 H 8.062200 5.726802 -19.965966 0
M  V30 34 H 4.385570 5.590233 -19.728223 0
M  V30 35 H 3.003737 9.697852 -23.391016 0
M  V30 36 H 2.085115 10.682116 -22.321290 0
M  V30 37 H 5.630357 4.566640 -21.371579 0
M  V30 38 H 6.553867 5.967265 -21.811018 0
M  V30 39 H 6.205604 7.863532 -22.403272 0
M  V30 40 H 6.757825 7.694485 -19.685379 0
M  V30 41 H 3.778971 7.841452 -19.489862 0
M  V30 42 H 8.850588 2.569940 -19.724526 0
M  V30 43 H 8.787773 1.538963 -18.326479 0
M  V30 44 H 7.317291 1.828702 -19.249068 0
M  V30 45 H 7.332709 3.420415 -12.279427 0
M  V30 46 H 8.845343 2.546161 -12.575893 0
M  V30 47 H 6.795304 9.640591 -23.738209 0
M  V30 48 H 6.517121 5.402827 -16.621653 0
M  V30 49 H 7.764332 6.192643 -17.538385 0
M  V30 50 H 8.856905 4.008512 -17.817740 0
M  V30 51 H 4.765403 6.542881 -17.652975 0
M  V30 52 H 5.973103 7.743449 -17.284590 0
M  V30 53 H 5.918844 4.020994 -18.638505 0
M  V30 54 H 6.865084 2.090231 -16.775981 0
M  V30 END ATOM
M  V30 BEGIN BOND
M  V30 1 2 5 4
M  V30 2 2 6 3
M  V30 3 1 9 4
M  V30 4 1 10 7
M  V30 5 1 10 8
M  V30 6 1 11 1
M  V30 7 1 11 2
M  V30 8 1 13 5
M  V30 9 1 14 12
M  V30 10 1 15 8
M  V30 11 1 16 9
M  V30 12 2 16 12
M  V30 13 1 17 5
M  V30 14 1 17 8
M  V30 15 1 17 15
M  V30 16 1 19 6
M  V30 17 1 20 1
M  V30 18 1 21 12
M  V30 19 2 21 13
M  V30 20 2 22 2
M  V30 21 1 22 6
M  V30 22 1 22 20
M  V30 23 1 24 2
M  V30 24 1 25 16
M  V30 25 1 26 18
M  V30 26 1 26 24
M  V30 27 1 27 15
M  V30 28 1 27 23
M  V30 29 1 28 7
M  V30 30 1 28 23
M  V30 31 1 28 26
M  V30 32 1 29 1
M  V30 33 1 30 1
M  V30 34 1 31 4
M  V30 35 1 32 7
M  V30 36 1 33 7
M  V30 37 1 8 34 CFG=1
M  V30 38 1 35 9
M  V30 39 1 36 9
M  V30 40 1 37 10
M  V30 41 1 38 10
M  V30 42 1 39 13
M  V30 43 1 15 40 CFG=3
M  V30 44 1 17 41 CFG=1
M  V30 45 1 42 18
M  V30 46 1 43 18
M  V30 47 1 44 18
M  V30 48 1 45 20
M  V30 49 1 46 20
M  V30 50 1 47 21
M  V30 51 1 48 23
M  V30 52 1 49 23
M  V30 53 1 26 50 CFG=1
M  V30 54 1 51 27
M  V30 55 1 52 27
M  V30 56 1 28 53 CFG=3
M  V30 57 1 54 24
M  V30 END BOND
M  V30 END CTAB
M  END
>  <i_epik_Tot_Q>  (1) 
-2

>  <i_epik_Tot_abs_Q>  (1) 
2

>  <i_i_glide_confnum>  (1) 
81

>  <i_i_glide_lignum>  (1) 
161

>  <i_i_glide_posenum>  (1) 
94

>  <i_i_glide_rotatable_bonds>  (1) 
5

>  <i_lp_mmshare_version>  (1) 
72125

>  <i_m_source_file_index>  (1) 
80

>  <i_f3d_flags>  (1) 
0

>  <num_sample>  (1) 
100

>  <b_lp_Chiralities_Consistent>  (1) 
1

>  <r_epik_Charging_Adjusted_Penalty>  (1) 
2.1010309465817274

>  <r_epik_Ionization_Penalty>  (1) 
1.0507665500608381

>  <r_epik_Ionization_Penalty_Charging>  (1) 
1.0507624105285871

>  <r_epik_Ionization_Penalty_Neutral>  (1) 
4.1395322510490374e-06

>  <r_epik_State_Penalty>  (1) 
1.0502685360531403

>  <r_glide_ring_energy>  (1) 
0

>  <r_i_docking_score>  (1) 
-3.5058279746924992

>  <r_i_glide_ecoul>  (1) 
-2.7294601907491187

>  <r_i_glide_eff_state_penalty>  (1) 
1.0502685360531403

>  <r_i_glide_einternal>  (1) 
7.0735935948402862

>  <r_i_glide_emodel>  (1) 
-31.14678770289354

>  <r_i_glide_emodel_strain>  (1) 
0.79839683875852074

>  <r_i_glide_energy>  (1) 
-29.516218742138715

>  <r_i_glide_erotb>  (1) 
0.48233039889226492

>  <r_i_glide_esite>  (1) 
-0.0439312001191597

>  <r_i_glide_evdw>  (1) 
-26.786758551389596

>  <r_i_glide_gscore>  (1) 
-4.5560965107456397

>  <r_i_glide_gscore_strain>  (1) 
0

>  <r_i_glide_hbond>  (1) 
0

>  <r_i_glide_ligand_efficiency>  (1) 
-0.12520814195330354

>  <r_i_glide_ligand_efficiency_ln>  (1) 
-0.80924803214119623

>  <r_i_glide_ligand_efficiency_sa>  (1) 
-0.38020566304444409

>  <r_i_glide_lipo>  (1) 
-2.3140871646215526

>  <r_i_glide_metal>  (1) 
-0

>  <r_i_glide_rewards>  (1) 
-0.93165158871534381

>  <r_lp_Energy>  (1) 
50.630325999999997

>  <s_epik_cmdline>  (1) 
J2VwaWtfcHl0aG9uJywgJy1waHQnLCAnMS4wJywgJy1waCcsICc3LjQnLCAnLXRuJywgJzgnLCAnLW1hJywgJzUwMCcsICctaW1hZScsICc8aW5maWxlLm1hZT4nLCAnLW9tYWUnLCAnPG91dGZpbGUubWFlPic=

>  <s_epik_input>  (1) 
Tz1DKFtPSF0pW0NASF0xW0NIMl1bQ0gyXVMvQzE9Ti9bQ0BASF0oW0NIM10pW0NASF0oW0NIMl1bQ0gyXTIpW0NIMl1bQ0gyXVtDQEBIXShbQ0BIXTIzKVtDQEhdM0M0PVtDSF1bQ0gyXUMoW09IXSk9QyhGKVtDSF09W0NIXTQ=

>  <s_glide_docking_method>  (1) 
confgen

>  <s_i_glide_gridfile>  (1) 
gpcr_drd2_6luq_protein_autoprepared_prepared

>  <s_lp_Force_Field>  (1) 
S-OPLS

>  <s_lp_Variant>  (1) 
DiffSBDD_79_num_sample_100-2

>  <s_m_source_file>  (1) 
generated__ligand_DiffSBDD_2026-05-06_prepared.sdf

>  <GenAI_Model>  (1) 
DiffSBDD

>  <Protein>  (1) 
generic_title2

$$$$
DiffSBDD_42_num_sample_100
     RDKit          3D

  0  0  0  0  0  0  0  0  0  0999 V3000
M  V30 BEGIN CTAB
M  V30 COUNTS 45 46 0 0 1
M  V30 BEGIN ATOM
M  V30 1 C 8.928727 5.113460 -11.023412 0 CFG=2
M  V30 2 O 8.329323 4.968551 -8.685576 0
M  V30 3 N 6.009014 5.142322 -13.826287 0
M  V30 4 C 7.600962 0.792814 -13.076937 0
M  V30 5 C 6.235519 7.927613 -16.015286 0
M  V30 6 O 5.796321 6.905084 -15.142713 0
M  V30 7 C 6.354188 1.561067 -12.737832 0 CFG=1
M  V30 8 N 9.942748 6.557371 -9.241445 0
M  V30 9 C 6.734378 4.369937 -11.727448 0 CFG=2
M  V30 10 C 9.999697 7.296651 -11.584209 0
M  V30 11 C 5.965946 2.801147 -13.527594 0
M  V30 12 C 5.043952 5.886903 -10.982225 0
M  V30 13 O 7.625595 5.421708 -11.500323 0
M  V30 14 C 9.028462 5.534482 -9.521122 0
M  V30 15 C 6.651025 5.961900 -14.728162 0
M  V30 16 N 6.605586 4.080018 -13.160242 0
M  V30 17 C 11.331149 8.501981 -9.752631 0
M  V30 18 O 7.819079 5.866454 -15.105522 0
M  V30 19 C 9.860917 5.839061 -11.989011 0
M  V30 20 N 6.296052 0.331153 -13.516006 0 CHG=1
M  V30 21 O 5.506085 4.545120 -11.087080 0
M  V30 22 C 10.381355 7.374733 -10.117289 0
M  V30 23 H 9.140056 4.045012 -11.093347 0
M  V30 24 H 5.047518 5.355707 -13.607369 0
M  V30 25 H 8.211567 1.090760 -13.927496 0
M  V30 26 H 8.037056 0.144065 -12.325495 0
M  V30 27 H 5.403318 8.582115 -16.269478 0
M  V30 28 H 7.003444 8.538187 -15.539517 0
M  V30 29 H 6.631864 7.504423 -16.939056 0
M  V30 30 H 5.864951 1.399300 -11.777803 0
M  V30 31 H 7.145253 3.461744 -11.323280 0
M  V30 32 H 9.059415 7.826968 -11.737195 0
M  V30 33 H 10.743204 7.769301 -12.216260 0
M  V30 34 H 4.883743 2.917718 -13.483462 0
M  V30 35 H 6.235195 2.624547 -14.569645 0
M  V30 36 H 4.252639 5.949621 -10.235954 0
M  V30 37 H 5.831645 6.568853 -10.691249 0
M  V30 38 H 4.659266 6.270414 -11.918436 0
M  V30 39 H 11.959598 8.798403 -10.591352 0
M  V30 40 H 10.768863 9.369397 -9.406263 0
M  V30 41 H 11.996680 8.192744 -8.946805 0
M  V30 42 H 10.824249 5.342208 -11.984180 0
M  V30 43 H 9.501724 5.762334 -13.016577 0
M  V30 44 H 5.935657 -0.491696 -13.044589 0
M  V30 45 H 6.117426 0.439655 -14.504431 0
M  V30 END ATOM
M  V30 BEGIN BOND
M  V30 1 1 6 5
M  V30 2 1 7 4
M  V30 3 1 11 7
M  V30 4 1 13 1
M  V30 5 1 13 9
M  V30 6 1 14 1
M  V30 7 2 14 2
M  V30 8 1 14 8
M  V30 9 1 15 3
M  V30 10 1 15 6
M  V30 11 1 16 3
M  V30 12 1 16 9
M  V30 13 1 16 11
M  V30 14 2 18 15
M  V30 15 1 19 1
M  V30 16 1 19 10
M  V30 17 1 20 4
M  V30 18 1 20 7
M  V30 19 1 21 9
M  V30 20 1 21 12
M  V30 21 2 22 8
M  V30 22 1 22 10
M  V30 23 1 22 17
M  V30 24 1 1 23 CFG=1
M  V30 25 1 24 3
M  V30 26 1 25 4
M  V30 27 1 26 4
M  V30 28 1 27 5
M  V30 29 1 28 5
M  V30 30 1 29 5
M  V30 31 1 7 30 CFG=1
M  V30 32 1 9 31 CFG=1
M  V30 33 1 32 10
M  V30 34 1 33 10
M  V30 35 1 34 11
M  V30 36 1 35 11
M  V30 37 1 36 12
M  V30 38 1 37 12
M  V30 39 1 38 12
M  V30 40 1 39 17
M  V30 41 1 40 17
M  V30 42 1 41 17
M  V30 43 1 42 19
M  V30 44 1 43 19
M  V30 45 1 44 20
M  V30 46 1 45 20
M  V30 END BOND
M  V30 END CTAB
M  END
>  <i_epik_Tot_Q>  (1) 
1

>  <i_epik_Tot_abs_Q>  (1) 
1

>  <i_i_glide_confnum>  (1) 
404

>  <i_i_glide_lignum>  (1) 
73

>  <i_i_glide_posenum>  (1) 
324

>  <i_i_glide_rotatable_bonds>  (1) 
9

>  <i_lp_mmshare_version>  (1) 
72125

>  <i_m_source_file_index>  (1) 
43

>  <i_f3d_flags>  (1) 
0

>  <num_sample>  (1) 
100

>  <b_lp_Chiralities_Consistent>  (1) 
1

>  <r_epik_Charging_Adjusted_Penalty>  (1) 
0.40508873970444137

>  <r_epik_Ionization_Penalty>  (1) 
0.2046740673665137

>  <r_epik_Ionization_Penalty_Charging>  (1) 
0.20254436985222068

>  <r_epik_Ionization_Penalty_Neutral>  (1) 
0.0021296975142930212

>  <r_epik_State_Penalty>  (1) 
0.20254436985222066

>  <r_glide_ring_energy>  (1) 
0

>  <r_i_docking_score>  (1) 
-3.5021419778499974

>  <r_i_glide_ecoul>  (1) 
-0.81407113535958642

>  <r_i_glide_eff_state_penalty>  (1) 
0.20254436985222066

>  <r_i_glide_einternal>  (1) 
21.001264522338516

>  <r_i_glide_emodel>  (1) 
-26.844414677291642

>  <r_i_glide_emodel_strain>  (1) 
2.3986684611989055

>  <r_i_glide_energy>  (1) 
-28.357499396903719

>  <r_i_glide_erotb>  (1) 
1.1222905180223397

>  <r_i_glide_esite>  (1) 
-0.10130221862560936

>  <r_i_glide_evdw>  (1) 
-27.543428261544133

>  <r_i_glide_gscore>  (1) 
-3.7046863477022178

>  <r_i_glide_gscore_strain>  (1) 
0

>  <r_i_glide_hbond>  (1) 
-0.046658622635003803

>  <r_i_glide_ligand_efficiency>  (1) 
-0.15918827172045444

>  <r_i_glide_ligand_efficiency_ln>  (1) 
-0.85605124311900183

>  <r_i_glide_ligand_efficiency_sa>  (1) 
-0.44605179833977004

>  <r_i_glide_lipo>  (1) 
-1.2194909572569497

>  <r_i_glide_metal>  (1) 
-0

>  <r_i_glide_rewards>  (1) 
-1.9602429838258493

>  <r_lp_Energy>  (1) 
15.805226999999999

>  <s_epik_Chemistry_Notes>  (1) 
This compound has an ester and may undergo hydrolysis at high or low pH. This compound has an imine and may undergo hydrolysis. This compound contains an acetal/aminal-like group ( X-CH(R)-Y where X, Y are N, S, or O) that may be acid/base labile, releasing an aldehyde.

>  <s_epik_cmdline>  (1) 
J2VwaWtfcHl0aG9uJywgJy1waHQnLCAnMS4wJywgJy1waCcsICc3LjQnLCAnLXRuJywgJzgnLCAnLW1hJywgJzUwMCcsICctaW1hZScsICc8aW5maWxlLm1hZT4nLCAnLW9tYWUnLCAnPG91dGZpbGUubWFlPic=

>  <s_epik_input>  (1) 
W0NIMl0xW0NIMl1DKFtDSDNdKT1OQyg9TylbQ0BIXTFPW0NAQEhdKE9bQ0gzXSlOKFtOSF1DKD1PKU9bQ0gzXSlbQ0gyXVtDQEBIXTJbQ0gyXVtOSF0y

>  <s_glide_docking_method>  (1) 
confgen

>  <s_i_glide_gridfile>  (1) 
gpcr_drd2_6luq_protein_autoprepared_prepared

>  <s_lp_Force_Field>  (1) 
S-OPLS

>  <s_lp_Variant>  (1) 
DiffSBDD_42_num_sample_100-1

>  <s_m_source_file>  (1) 
generated__ligand_DiffSBDD_2026-05-06_prepared.sdf

>  <GenAI_Model>  (1) 
DiffSBDD

>  <Protein>  (1) 
generic_title2

$$$$
DiffSBDD_66_num_sample_100
     RDKit          3D

  0  0  0  0  0  0  0  0  0  0999 V3000
M  V30 BEGIN CTAB
M  V30 COUNTS 88 91 0 0 1
M  V30 BEGIN ATOM
M  V30 1 C 10.425370 4.831223 -16.406111 0
M  V30 2 F 9.661161 8.142025 -11.966794 0
M  V30 3 C 7.945247 5.259860 -16.183297 0 CFG=1
M  V30 4 N 8.576385 3.432718 -18.535160 0
M  V30 5 C 9.608705 1.315849 -19.138773 0
M  V30 6 F 6.230997 5.789444 -17.736941 0
M  V30 7 O 10.587419 8.969038 -9.491518 0
M  V30 8 N 11.575982 2.526714 -18.404404 0
M  V30 9 O 11.593316 6.969181 -12.199526 0
M  V30 10 C 7.982560 4.659795 -18.827563 0
M  V30 11 O 11.558607 0.302033 -18.242636 0
M  V30 12 C 6.740292 5.066559 -15.208250 0
M  V30 13 C 12.876223 0.793189 -17.839994 0
M  V30 14 C 6.981992 4.508222 -13.813347 0
M  V30 15 O 7.528782 0.008210 -19.398251 0
M  V30 16 C 8.917614 2.549029 -19.582054 0
M  V30 17 O 7.791971 5.061881 -19.979318 0
M  V30 18 C 8.942726 -0.034629 -19.410103 0
M  V30 19 C 6.643568 3.005415 -13.596558 0
M  V30 20 C 10.217485 7.986768 -8.860167 0
M  V30 21 C 12.898778 2.364005 -17.924872 0
M  V30 22 O 6.233274 0.581138 -15.576821 0
M  V30 23 C 8.327567 5.941527 -10.557857 0
M  V30 24 C 10.247535 6.593366 -5.885654 0
M  V30 25 C 10.200969 6.900614 -11.989695 0 CFG=1
M  V30 26 O 8.648041 2.777470 -20.763903 0
M  V30 27 C 9.038236 4.207964 -16.147376 0 CFG=1
M  V30 28 N 9.547120 8.101754 -7.693541 0
M  V30 29 C 6.221048 4.679997 -10.699354 0 CFG=2
M  V30 30 C 7.435380 2.256206 -16.716253 0
M  V30 31 C 7.625021 1.886683 -14.076733 0 CFG=1
M  V30 32 O 5.067925 4.611657 -11.549928 0
M  V30 33 C 7.593968 0.684284 -13.111822 0
M  V30 34 C 7.390030 5.312698 -12.812030 0
M  V30 35 C 9.839436 6.091631 -10.720461 0 CFG=1
M  V30 36 C 8.724102 3.020616 -17.091621 0 CFG=1
M  V30 37 C 7.545484 5.570646 -17.644114 0 CFG=2
M  V30 38 C 10.858325 1.407783 -18.605836 0
M  V30 39 C 9.127301 6.974525 -6.865489 0
M  V30 40 C 5.157258 5.754923 -10.691819 0
M  V30 41 C 7.578646 4.876260 -11.369626 0 CFG=1
M  V30 42 C 7.447308 1.308353 -15.510311 0 CFG=1
M  V30 43 C 10.534135 6.569317 -9.388772 0
M  V30 44 H 10.515529 5.240827 -17.412223 0
M  V30 45 H 10.629858 5.639598 -15.704455 0
M  V30 46 H 11.215115 4.096332 -16.268476 0
M  V30 47 H 8.407128 6.168202 -15.793602 0
M  V30 48 H 11.253863 3.435908 -18.704652 0
M  V30 49 H 11.814354 6.346340 -12.876053 0
M  V30 50 H 6.342025 6.070677 -15.056021 0
M  V30 51 H 5.875200 4.569486 -15.600415 0
M  V30 52 H 13.104311 0.456207 -16.830755 0
M  V30 53 H 13.630063 0.364953 -18.500709 0
M  V30 54 H 7.192122 -0.876077 -19.407041 0
M  V30 55 H 9.272061 -0.759745 -18.665087 0
M  V30 56 H 9.273247 -0.399032 -20.383740 0
M  V30 57 H 6.565471 2.855758 -12.525982 0
M  V30 58 H 5.618345 2.812306 -13.891668 0
M  V30 59 H 13.042135 2.834117 -16.951327 0
M  V30 60 H 13.631414 2.736524 -18.641350 0
M  V30 61 H 6.246980 -0.100803 -14.920124 0
M  V30 62 H 7.896994 6.894503 -10.836134 0
M  V30 63 H 8.107417 5.769211 -9.505563 0
M  V30 64 H 9.898552 5.871306 -5.152581 0
M  V30 65 H 11.109794 6.164367 -6.395459 0
M  V30 66 H 10.592952 7.464710 -5.328141 0
M  V30 67 H 9.814717 6.385843 -12.865993 0
M  V30 68 H 9.065821 3.867128 -15.125987 0
M  V30 69 H 9.327284 9.026893 -7.358770 0
M  V30 70 H 6.210237 3.954894 -9.891171 0
M  V30 71 H 7.137710 1.648520 -17.567165 0
M  V30 72 H 6.634756 2.955304 -16.631583 0
M  V30 73 H 8.634771 2.260030 -13.958757 0
M  V30 74 H 6.617887 0.198569 -13.073949 0
M  V30 75 H 8.328526 -0.061576 -13.414822 0
M  V30 76 H 7.838703 0.969151 -12.097490 0
M  V30 77 H 7.570531 6.357159 -13.021024 0
M  V30 78 H 10.207249 5.084021 -10.913082 0
M  V30 79 H 9.519221 2.325489 -16.862143 0
M  V30 80 H 7.975488 6.540616 -17.892269 0
M  V30 81 H 8.269307 7.320858 -6.291623 0
M  V30 82 H 8.751047 6.117426 -7.422668 0
M  V30 83 H 4.413489 5.775778 -9.899918 0
M  V30 84 H 5.350820 6.697020 -11.201176 0
M  V30 85 H 8.127192 3.933859 -11.336584 0
M  V30 86 H 8.243517 0.583250 -15.685784 0
M  V30 87 H 10.430140 5.784291 -8.646928 0
M  V30 88 H 11.610482 6.610895 -9.529788 0
M  V30 END ATOM
M  V30 BEGIN BOND
M  V30 1 1 10 4
M  V30 2 1 12 3
M  V30 3 1 13 11
M  V30 4 1 14 12
M  V30 5 1 16 4
M  V30 6 1 16 5
M  V30 7 2 17 10
M  V30 8 1 18 5
M  V30 9 1 18 15
M  V30 10 1 19 14
M  V30 11 2 20 7
M  V30 12 1 21 8
M  V30 13 1 21 13
M  V30 14 1 25 2
M  V30 15 1 25 9
M  V30 16 2 26 16
M  V30 17 1 27 1
M  V30 18 1 27 3
M  V30 19 1 28 20
M  V30 20 1 31 19
M  V30 21 1 32 29
M  V30 22 1 33 31
M  V30 23 2 34 14
M  V30 24 1 35 23
M  V30 25 1 35 25
M  V30 26 1 36 4
M  V30 27 1 36 27
M  V30 28 1 36 30
M  V30 29 1 37 3
M  V30 30 1 37 6
M  V30 31 1 37 10
M  V30 32 2 38 5
M  V30 33 1 38 8
M  V30 34 1 38 11
M  V30 35 1 39 24
M  V30 36 1 39 28
M  V30 37 1 40 29
M  V30 38 1 40 32
M  V30 39 1 41 23
M  V30 40 1 41 29
M  V30 41 1 41 34
M  V30 42 1 42 22
M  V30 43 1 42 30
M  V30 44 1 42 31
M  V30 45 1 43 20
M  V30 46 1 43 35
M  V30 47 1 44 1
M  V30 48 1 45 1
M  V30 49 1 46 1
M  V30 50 1 3 47 CFG=1
M  V30 51 1 48 8
M  V30 52 1 49 9
M  V30 53 1 50 12
M  V30 54 1 51 12
M  V30 55 1 52 13
M  V30 56 1 53 13
M  V30 57 1 54 15
M  V30 58 1 55 18
M  V30 59 1 56 18
M  V30 60 1 57 19
M  V30 61 1 58 19
M  V30 62 1 59 21
M  V30 63 1 60 21
M  V30 64 1 61 22
M  V30 65 1 62 23
M  V30 66 1 63 23
M  V30 67 1 64 24
M  V30 68 1 65 24
M  V30 69 1 66 24
M  V30 70 1 25 67 CFG=3
M  V30 71 1 27 68 CFG=1
M  V30 72 1 69 28
M  V30 73 1 29 70 CFG=1
M  V30 74 1 71 30
M  V30 75 1 72 30
M  V30 76 1 31 73 CFG=3
M  V30 77 1 74 33
M  V30 78 1 75 33
M  V30 79 1 76 33
M  V30 80 1 77 34
M  V30 81 1 35 78 CFG=3
M  V30 82 1 36 79 CFG=3
M  V30 83 1 37 80 CFG=3
M  V30 84 1 81 39
M  V30 85 1 82 39
M  V30 86 1 83 40
M  V30 87 1 84 40
M  V30 88 1 41 85 CFG=3
M  V30 89 1 42 86 CFG=3
M  V30 90 1 87 43
M  V30 91 1 88 43
M  V30 END BOND
M  V30 END CTAB
M  END
>  <i_epik_Tot_Q>  (1) 
0

>  <i_epik_Tot_abs_Q>  (1) 
0

>  <i_i_glide_confnum>  (1) 
293

>  <i_i_glide_lignum>  (1) 
131

>  <i_i_glide_posenum>  (1) 
251

>  <i_i_glide_rotatable_bonds>  (1) 
15

>  <i_lp_mmshare_version>  (1) 
72125

>  <i_m_source_file_index>  (1) 
67

>  <i_f3d_flags>  (1) 
0

>  <num_sample>  (1) 
100

>  <b_lp_Chiralities_Consistent>  (1) 
1

>  <r_epik_Charging_Adjusted_Penalty>  (1) 
0.011224841026204068

>  <r_epik_Ionization_Penalty>  (1) 
0.011270599783865109

>  <r_epik_Ionization_Penalty_Charging>  (1) 
8.5422756824624084e-11

>  <r_epik_Ionization_Penalty_Neutral>  (1) 
0.011270599698442352

>  <r_epik_State_Penalty>  (1) 
0.01122484094078131

>  <r_glide_ring_energy>  (1) 
0

>  <r_i_docking_score>  (1) 
-3.4974803866373474

>  <r_i_glide_ecoul>  (1) 
-5.9308001214241814

>  <r_i_glide_eff_state_penalty>  (1) 
0.01122484094078131

>  <r_i_glide_einternal>  (1) 
19.483700785515815

>  <r_i_glide_emodel>  (1) 
-29.097704084344116

>  <r_i_glide_emodel_strain>  (1) 
3.9765788674918383

>  <r_i_glide_energy>  (1) 
-34.773270045964175

>  <r_i_glide_erotb>  (1) 
0.43215163049877869

>  <r_i_glide_esite>  (1) 
-0.17743400584484159

>  <r_i_glide_evdw>  (1) 
-28.842469924539991

>  <r_i_glide_gscore>  (1) 
-3.5087052275781287

>  <r_i_glide_gscore_strain>  (1) 
0

>  <r_i_glide_hbond>  (1) 
-0.057089427893040057

>  <r_i_glide_ligand_efficiency>  (1) 
-0.081336753177612728

>  <r_i_glide_ligand_efficiency_ln>  (1) 
-0.73457958112476252

>  <r_i_glide_ligand_efficiency_sa>  (1) 
-0.28495502332060224

>  <r_i_glide_lipo>  (1) 
-1.9541159227921165

>  <r_i_glide_metal>  (1) 
-0

>  <r_i_glide_rewards>  (1) 
0.57952601289371786

>  <r_lp_Energy>  (1) 
48.107619999999997

>  <r_lp_tautomer_probability>  (1) 
0.49997499999946832

>  <s_epik_Chemistry_Notes>  (1) 
This compound has an imine and may undergo hydrolysis.

>  <s_epik_cmdline>  (1) 
J2VwaWtfcHl0aG9uJywgJy1waHQnLCAnMS4wJywgJy1waCcsICc3LjQnLCAnLXRuJywgJzgnLCAnLW1hJywgJzUwMCcsICctaW1hZScsICc8aW5maWxlLm1hZT4nLCAnLW9tYWUnLCAnPG91dGZpbGUubWFlPic=

>  <s_epik_input>  (1) 
TzFbQ0gyXVtDSDJdTj1DMVtDQEhdKFtDSDJdW09IXSlDKD1PKU4oQyg9TylbQ0BIXTJGKVtDQEBIXShbQ0BASF0zW0NIM10pW0NIMl1bQ0BIXShbT0hdKVtDQEhdKFtDSDNdKVtDSDJdQyhcW0NIMl1bQ0BIXTIzKT1bQ0hdL1tDQEhdKFtDQEBIXTRPW0NIMl00KVtDSDJdW0NAQEhdKFtDQEBIXShGKVtPSF0pW0NIMl1DKD1PKVtOSF1bQ0gyXVtDSDNd

>  <s_glide_docking_method>  (1) 
confgen

>  <s_i_glide_gridfile>  (1) 
gpcr_drd2_6luq_protein_autoprepared_prepared

>  <s_lp_Force_Field>  (1) 
S-OPLS

>  <s_lp_Variant>  (1) 
DiffSBDD_66_num_sample_100-3

>  <s_m_source_file>  (1) 
generated__ligand_DiffSBDD_2026-05-06_prepared.sdf

>  <GenAI_Model>  (1) 
DiffSBDD

>  <Protein>  (1) 
generic_title2

$$$$
DiffSBDD_39_num_sample_100
     RDKit          3D

  0  0  0  0  0  0  0  0  0  0999 V3000
M  V30 BEGIN CTAB
M  V30 COUNTS 66 70 0 0 1
M  V30 BEGIN ATOM
M  V30 1 C 7.663290 2.438334 -19.000690 0 CFG=2
M  V30 2 N 9.430589 7.771756 -11.092377 0
M  V30 3 C 8.497724 5.507235 -11.100814 0
M  V30 4 C 7.036417 3.176161 -14.513234 0
M  V30 5 C 7.144009 -1.931917 -17.593930 0 CFG=2
M  V30 6 C 9.082849 5.270570 -9.839936 0
M  V30 7 C 8.029317 -3.119739 -17.891542 0
M  V30 8 C 5.924090 0.957564 -16.987678 0
M  V30 9 C 6.716099 5.893306 -14.486041 0 CFG=2
M  V30 10 C 7.627332 3.913980 -16.846306 0
M  V30 11 N 8.134843 7.179264 -12.935296 0
M  V30 12 C 7.099111 5.095194 -16.727654 0
M  V30 13 C 8.126230 6.166099 -13.970345 0
M  V30 14 O 7.768402 -2.122542 -18.878104 0
M  V30 15 C 8.299518 3.577054 -18.181977 0
M  V30 16 C 7.942316 1.007932 -18.479800 0
M  V30 17 C 9.982559 7.509686 -9.891370 0
M  V30 18 C 9.835032 6.284562 -9.230175 0
M  V30 19 C 7.696731 -0.814736 -16.691802 0
M  V30 20 C 4.891633 -2.103904 -18.818974 0
M  V30 21 O 8.209282 2.500848 -20.302615 0
M  V30 22 C 7.609651 2.918757 -15.751005 0
M  V30 23 C 8.213965 1.540570 -16.003317 0
M  V30 24 C 7.434530 0.677708 -17.053451 0 CFG=2
M  V30 25 C 5.647027 -2.227728 -17.485125 0
M  V30 26 C 6.309840 4.576769 -12.463275 0
M  V30 27 C 7.679240 4.374886 -11.763306 0
M  V30 28 N 10.737428 8.522964 -9.309895 0
M  V30 29 C 8.696788 6.806406 -11.699151 0
M  V30 30 C 6.316367 4.487573 -14.019833 0 CFG=2
M  V30 31 C 6.702281 6.060755 -15.970119 0
M  V30 32 H 6.594066 2.618012 -19.113865 0
M  V30 33 H 7.057232 2.381034 -13.781901 0
M  V30 34 H 8.959919 4.319596 -9.349038 0
M  V30 35 H 9.036487 -3.124924 -17.491030 0
M  V30 36 H 7.574196 -4.088742 -18.088457 0
M  V30 37 H 5.366230 0.422719 -17.748332 0
M  V30 38 H 5.497697 0.723957 -16.011490 0
M  V30 39 H 5.751512 2.001729 -17.206991 0
M  V30 40 H 6.005273 6.625521 -14.097172 0
M  V30 41 H 8.726276 5.285032 -13.756861 0
M  V30 42 H 8.634830 6.569325 -14.830157 0
M  V30 43 H 9.348804 3.353308 -17.986543 0
M  V30 44 H 8.319102 4.473265 -18.807852 0
M  V30 45 H 7.469669 0.322380 -19.183620 0
M  V30 46 H 9.011623 0.799185 -18.536620 0
M  V30 47 H 10.294039 6.120094 -8.267671 0
M  V30 48 H 8.775534 -0.956745 -16.620170 0
M  V30 49 H 7.315940 -0.995559 -15.688188 0
M  V30 50 H 3.821689 -2.262406 -18.677554 0
M  V30 51 H 5.028029 -1.127560 -19.282539 0
M  V30 52 H 5.242515 -2.849454 -19.531814 0
M  V30 53 H 9.138829 2.337544 -20.253402 0
M  V30 54 H 9.258220 1.653203 -16.296606 0
M  V30 55 H 8.251283 1.011216 -15.050388 0
M  V30 56 H 5.521684 -3.241360 -17.101824 0
M  V30 57 H 5.187022 -1.594627 -16.728678 0
M  V30 58 H 5.657611 3.773196 -12.119012 0
M  V30 59 H 5.827325 5.484278 -12.096962 0
M  V30 60 H 8.354496 3.728839 -12.322850 0
M  V30 61 H 7.404610 3.771488 -10.904780 0
M  V30 62 H 11.162344 8.409333 -8.402803 0
M  V30 63 H 5.271978 4.358566 -14.291569 0
M  V30 64 H 6.520111 7.052669 -16.357208 0
M  V30 65 H 10.851014 9.416186 -9.761824 0
M  V30 66 H 8.344247 8.116619 -13.242390 0
M  V30 END ATOM
M  V30 BEGIN BOND
M  V30 1 1 6 3
M  V30 2 1 7 5
M  V30 3 2 12 10
M  V30 4 1 13 9
M  V30 5 1 13 11
M  V30 6 1 14 5
M  V30 7 1 14 7
M  V30 8 1 15 1
M  V30 9 1 15 10
M  V30 10 1 16 1
M  V30 11 2 17 2
M  V30 12 2 18 6
M  V30 13 1 18 17
M  V30 14 1 5 19 CFG=1
M  V30 15 1 21 1
M  V30 16 2 22 4
M  V30 17 1 22 10
M  V30 18 1 23 22
M  V30 19 1 24 8 CFG=3
M  V30 20 1 24 16
M  V30 21 1 24 19
M  V30 22 1 24 23
M  V30 23 1 25 5
M  V30 24 1 25 20
M  V30 25 1 27 3
M  V30 26 1 27 26
M  V30 27 1 28 17
M  V30 28 1 29 2
M  V30 29 2 29 3
M  V30 30 1 29 11
M  V30 31 1 30 4
M  V30 32 1 30 9
M  V30 33 1 30 26
M  V30 34 1 31 9
M  V30 35 2 31 12
M  V30 36 1 1 32 CFG=3
M  V30 37 1 33 4
M  V30 38 1 34 6
M  V30 39 1 35 7
M  V30 40 1 36 7
M  V30 41 1 37 8
M  V30 42 1 38 8
M  V30 43 1 39 8
M  V30 44 1 9 40 CFG=1
M  V30 45 1 41 13
M  V30 46 1 42 13
M  V30 47 1 43 15
M  V30 48 1 44 15
M  V30 49 1 45 16
M  V30 50 1 46 16
M  V30 51 1 47 18
M  V30 52 1 48 19
M  V30 53 1 49 19
M  V30 54 1 50 20
M  V30 55 1 51 20
M  V30 56 1 52 20
M  V30 57 1 53 21
M  V30 58 1 54 23
M  V30 59 1 55 23
M  V30 60 1 56 25
M  V30 61 1 57 25
M  V30 62 1 58 26
M  V30 63 1 59 26
M  V30 64 1 60 27
M  V30 65 1 61 27
M  V30 66 1 62 28
M  V30 67 1 30 63 CFG=3
M  V30 68 1 64 31
M  V30 69 1 65 28
M  V30 70 1 66 11
M  V30 END BOND
M  V30 END CTAB
M  END
>  <i_epik_Tot_Q>  (1) 
0

>  <i_epik_Tot_abs_Q>  (1) 
0

>  <i_i_glide_confnum>  (1) 
12

>  <i_i_glide_lignum>  (1) 
69

>  <i_i_glide_posenum>  (1) 
379

>  <i_i_glide_rotatable_bonds>  (1) 
4

>  <i_lp_mmshare_version>  (1) 
72125

>  <i_m_source_file_index>  (1) 
40

>  <i_f3d_flags>  (1) 
0

>  <num_sample>  (1) 
100

>  <b_lp_Chiralities_Consistent>  (1) 
1

>  <r_epik_Charging_Adjusted_Penalty>  (1) 
0

>  <r_epik_Ionization_Penalty>  (1) 
0.1664306043943147

>  <r_epik_Ionization_Penalty_Charging>  (1) 
0

>  <r_epik_Ionization_Penalty_Neutral>  (1) 
0.1664306043943147

>  <r_epik_State_Penalty>  (1) 
-0

>  <r_glide_ring_energy>  (1) 
0

>  <r_i_docking_score>  (1) 
-3.4952148591691152

>  <r_i_glide_ecoul>  (1) 
-0.067443911674800128

>  <r_i_glide_eff_state_penalty>  (1) 
-0

>  <r_i_glide_einternal>  (1) 
1.4097749141447107

>  <r_i_glide_emodel>  (1) 
-27.720694540386361

>  <r_i_glide_emodel_strain>  (1) 
2.4513904486579463

>  <r_i_glide_energy>  (1) 
-26.06537748967196

>  <r_i_glide_erotb>  (1) 
0.22283361910969357

>  <r_i_glide_esite>  (1) 
-0.024130941844933765

>  <r_i_glide_evdw>  (1) 
-25.997933577997159

>  <r_i_glide_gscore>  (1) 
-3.4952148591691152

>  <r_i_glide_gscore_strain>  (1) 
0

>  <r_i_glide_hbond>  (1) 
0

>  <r_i_glide_ligand_efficiency>  (1) 
-0.11274886642481016

>  <r_i_glide_ligand_efficiency_ln>  (1) 
-0.78827806621398744

>  <r_i_glide_ligand_efficiency_sa>  (1) 
-0.35418710756596028

>  <r_i_glide_lipo>  (1) 
-1.425278275407053

>  <r_i_glide_metal>  (1) 
-0

>  <r_i_glide_rewards>  (1) 
-0.95862599537574422

>  <r_lp_Energy>  (1) 
40.513892999999996

>  <r_lp_tautomer_probability>  (1) 
1

>  <s_epik_cmdline>  (1) 
J2VwaWtfcHl0aG9uJywgJy1waHQnLCAnMS4wJywgJy1waCcsICc3LjQnLCAnLXRuJywgJzgnLCAnLW1hJywgJzUwMCcsICctaW1hZScsICc8aW5maWxlLm1hZT4nLCAnLW9tYWUnLCAnPG91dGZpbGUubWFlPic=

>  <s_epik_input>  (1) 
TzFbQ0gyXVtDQEBdMShbQ0gyXVtDSDNdKVtDSDJdW0NAQF0oW0NIM10pKFtDSDJdMilbQ0gyXVtDQEhdKFtPSF0pW0NIMl1DKD1DPVtDSF0zKUMyPVtDSF1bQ0BASF0oW0NIMl1bQ0gyXTQpW0NASF0zW0NIMl1bTkhdQyhbQ0BIXTQ1KT1OL0MoPU4vW0hdKVtDSF09W0NIXTU=

>  <s_glide_docking_method>  (1) 
confgen

>  <s_i_glide_gridfile>  (1) 
gpcr_drd2_6luq_protein_autoprepared_prepared

>  <s_lp_Force_Field>  (1) 
S-OPLS

>  <s_lp_Variant>  (1) 
DiffSBDD_39_num_sample_100-1

>  <s_m_source_file>  (1) 
generated__ligand_DiffSBDD_2026-05-06_prepared.sdf

>  <GenAI_Model>  (1) 
DiffSBDD

>  <Protein>  (1) 
generic_title2

$$$$
DiffSBDD_6_num_sample_100
     RDKit          3D

  0  0  0  0  0  0  0  0  0  0999 V3000
M  V30 BEGIN CTAB
M  V30 COUNTS 65 68 0 0 1
M  V30 BEGIN ATOM
M  V30 1 N 7.267670 5.439468 -13.747351 0
M  V30 2 N 10.729877 7.118757 -7.663991 0
M  V30 3 C 11.369922 8.363790 -7.796349 0
M  V30 4 C 11.979636 8.015912 -10.274171 0
M  V30 5 C 11.517280 5.704995 -16.344765 0
M  V30 6 N 8.634924 6.247178 -10.171545 0 CFG=1 CHG=1
M  V30 7 C 7.894395 5.469817 -15.006390 0
M  V30 8 F 11.834781 10.449950 -6.708209 0
M  V30 9 C 6.187153 4.683627 -10.327303 0
M  V30 10 C 6.335349 4.377730 -13.422391 0
M  V30 11 C 9.685634 7.238504 -9.912808 0 CFG=1
M  V30 12 F 11.889985 6.169605 -15.152477 0
M  V30 13 C 8.396410 5.486359 -11.454603 0 CFG=2
M  V30 14 C 10.246540 6.367444 -8.813369 0 CFG=2
M  V30 15 C 8.915285 5.633317 -8.841200 0
M  V30 16 F 12.241281 4.635172 -16.683730 0
M  V30 17 C 8.180333 4.659270 -18.048282 0
M  V30 18 C 7.056410 4.905451 -17.382274 0
M  V30 19 C 10.026132 5.373024 -16.420693 0
M  V30 20 C 7.659968 6.281745 -12.585149 0 CFG=1
M  V30 21 F 9.433830 6.570903 -5.891912 0
M  V30 22 C 6.943388 5.685531 -16.139171 0
M  V30 23 C 9.532488 5.054807 -17.660439 0
M  V30 24 C 10.650959 7.685307 -10.960094 0
M  V30 25 C 8.199477 7.658684 -12.940854 0
M  V30 26 F 10.238397 9.248233 -5.892665 0
M  V30 27 C 11.909328 8.807950 -8.966993 0
M  V30 28 C 7.443477 4.319822 -11.136023 0 CFG=2
M  V30 29 C 9.235073 5.369315 -15.147164 0
M  V30 30 C 11.419453 9.200875 -6.509429 0
M  V30 31 C 7.025663 3.489548 -12.374065 0
M  V30 32 C 10.643907 6.429083 -6.391284 0
M  V30 33 F 11.834794 6.640618 -17.235817 0
M  V30 34 H 12.635804 8.555468 -10.958305 0
M  V30 35 H 12.513682 7.096995 -10.044634 0
M  V30 36 H 5.414130 5.165884 -10.919499 0
M  V30 37 H 5.749154 3.783616 -9.892968 0
M  V30 38 H 6.416577 5.369989 -9.518444 0
M  V30 39 H 5.394149 4.788754 -13.058039 0
M  V30 40 H 6.098240 3.783362 -14.306085 0
M  V30 41 H 9.176057 8.097824 -9.468796 0
M  V30 42 H 9.345327 5.095015 -11.822870 0
M  V30 43 H 11.034802 5.720272 -9.091635 0
M  V30 44 H 8.222969 5.991387 -8.078937 0
M  V30 45 H 9.047480 4.554797 -8.789763 0
M  V30 46 H 8.080771 4.132264 -18.985889 0
M  V30 47 H 6.126177 4.568116 -17.809555 0
M  V30 48 H 6.694729 6.550021 -12.154706 0
M  V30 49 H 5.913005 5.583342 -15.795037 0
M  V30 50 H 7.027540 6.733926 -16.424856 0
M  V30 51 H 10.258100 5.059441 -18.460056 0
M  V30 52 H 10.236208 8.567424 -11.445352 0
M  V30 53 H 10.832871 6.923381 -11.718540 0
M  V30 54 H 8.019128 8.365682 -12.128275 0
M  V30 55 H 9.261899 7.593085 -13.091261 0
M  V30 56 H 7.721453 8.069756 -13.830480 0
M  V30 57 H 12.368597 9.767548 -8.994145 0
M  V30 58 H 8.070051 3.769210 -10.473863 0
M  V30 59 H 9.804138 5.277064 -14.234452 0
M  V30 60 H 12.135960 8.780731 -5.804843 0
M  V30 61 H 6.356073 2.676726 -12.091937 0
M  V30 62 H 7.906206 3.024987 -12.818357 0
M  V30 63 H 10.834433 5.369892 -6.539478 0
M  V30 64 H 11.355536 6.783610 -5.648172 0
M  V30 65 H 7.774187 6.788859 -9.998016 0
M  V30 END ATOM
M  V30 BEGIN BOND
M  V30 1 1 3 2
M  V30 2 1 7 1
M  V30 3 1 10 1
M  V30 4 1 11 6
M  V30 5 1 12 5
M  V30 6 1 13 6
M  V30 7 1 14 2
M  V30 8 1 14 11
M  V30 9 1 15 6
M  V30 10 1 15 14
M  V30 11 1 16 5
M  V30 12 2 18 17
M  V30 13 1 19 5
M  V30 14 1 20 1
M  V30 15 1 20 13
M  V30 16 1 22 7
M  V30 17 1 22 18
M  V30 18 1 23 17
M  V30 19 2 23 19
M  V30 20 1 24 4
M  V30 21 1 24 11
M  V30 22 1 25 20
M  V30 23 2 27 3
M  V30 24 1 27 4
M  V30 25 1 28 9
M  V30 26 1 28 13
M  V30 27 2 29 7
M  V30 28 1 29 19
M  V30 29 1 30 3
M  V30 30 1 30 8
M  V30 31 1 30 26
M  V30 32 1 31 10
M  V30 33 1 31 28
M  V30 34 1 32 2
M  V30 35 1 32 21
M  V30 36 1 33 5
M  V30 37 1 34 4
M  V30 38 1 35 4
M  V30 39 1 36 9
M  V30 40 1 37 9
M  V30 41 1 38 9
M  V30 42 1 39 10
M  V30 43 1 40 10
M  V30 44 1 11 41 CFG=1
M  V30 45 1 13 42 CFG=3
M  V30 46 1 14 43 CFG=3
M  V30 47 1 44 15
M  V30 48 1 45 15
M  V30 49 1 46 17
M  V30 50 1 47 18
M  V30 51 1 20 48 CFG=1
M  V30 52 1 49 22
M  V30 53 1 50 22
M  V30 54 1 51 23
M  V30 55 1 52 24
M  V30 56 1 53 24
M  V30 57 1 54 25
M  V30 58 1 55 25
M  V30 59 1 56 25
M  V30 60 1 57 27
M  V30 61 1 28 58 CFG=1
M  V30 62 1 59 29
M  V30 63 1 60 30
M  V30 64 1 61 31
M  V30 65 1 62 31
M  V30 66 1 63 32
M  V30 67 1 64 32
M  V30 68 1 6 65 CFG=1
M  V30 END BOND
M  V30 END CTAB
M  END
>  <i_epik_Tot_Q>  (1) 
1

>  <i_epik_Tot_abs_Q>  (1) 
1

>  <i_i_glide_confnum>  (1) 
19

>  <i_i_glide_lignum>  (1) 
11

>  <i_i_glide_posenum>  (1) 
375

>  <i_i_glide_rotatable_bonds>  (1) 
5

>  <i_lp_mmshare_version>  (1) 
72125

>  <i_m_source_file_index>  (1) 
7

>  <i_f3d_flags>  (1) 
0

>  <num_sample>  (1) 
100

>  <b_lp_Chiralities_Consistent>  (1) 
1

>  <r_epik_Charging_Adjusted_Penalty>  (1) 
2.2946868864184928

>  <r_epik_Ionization_Penalty>  (1) 
1.147343534253078

>  <r_epik_Ionization_Penalty_Charging>  (1) 
1.1473434712357071

>  <r_epik_Ionization_Penalty_Neutral>  (1) 
6.301737089438289e-08

>  <r_epik_State_Penalty>  (1) 
1.1473434151827855

>  <r_glide_ring_energy>  (1) 
0.067460085264342703

>  <r_i_docking_score>  (1) 
-3.4941272000485872

>  <r_i_glide_ecoul>  (1) 
-7.7960616820660862

>  <r_i_glide_eff_state_penalty>  (1) 
1.1473434151827855

>  <r_i_glide_einternal>  (1) 
24.259321926160368

>  <r_i_glide_emodel>  (1) 
-11.65733759439793

>  <r_i_glide_emodel_strain>  (1) 
8.9886780539058861

>  <r_i_glide_energy>  (1) 
-25.466582090825067

>  <r_i_glide_erotb>  (1) 
0.17835229215497114

>  <r_i_glide_esite>  (1) 
-0.12756554035439119

>  <r_i_glide_evdw>  (1) 
-17.670520408758982

>  <r_i_glide_gscore>  (1) 
-4.6414706152313725

>  <r_i_glide_gscore_strain>  (1) 
1.2471695134764715

>  <r_i_glide_hbond>  (1) 
-0.17209993815259067

>  <r_i_glide_ligand_efficiency>  (1) 
-0.10588264242571477

>  <r_i_glide_ligand_efficiency_ln>  (1) 
-0.77707579766840673

>  <r_i_glide_ligand_efficiency_sa>  (1) 
-0.33962221053115271

>  <r_i_glide_lipo>  (1) 
-2.1963059018341418

>  <r_i_glide_metal>  (1) 
-0

>  <r_i_glide_rewards>  (1) 
-1.5180857677738293

>  <r_lp_Energy>  (1) 
67.908214999999998

>  <s_epik_Chemistry_Notes>  (1) 
This compound has an imine and may undergo hydrolysis.

>  <s_epik_cmdline>  (1) 
J2VwaWtfcHl0aG9uJywgJy1waHQnLCAnMS4wJywgJy1waCcsICc3LjQnLCAnLXRuJywgJzgnLCAnLW1hJywgJzUwMCcsICctaW1hZScsICc8aW5maWxlLm1hZT4nLCAnLW9tYWUnLCAnPG91dGZpbGUubWFlPic=

>  <s_epik_input>  (1) 
W0NIMl0xW0NIXT1bQ0hdW0NIXT1DKEMoRikoRilGKVtDSF09QzFOMltDSDJdW0NIMl1bQ0BIXShbQ0gzXSlbQ0BASF0oW0NASF0yW0NIM10pTjNbQ0gyXVtDQEBIXShbQ0BIXTM0KU4oW0NIMl1GKUMoW0NIXShGKUYpPVtDSF1bQ0gyXVtDSDJdNA==

>  <s_glide_docking_method>  (1) 
confgen

>  <s_i_glide_gridfile>  (1) 
gpcr_drd2_6luq_protein_autoprepared_prepared

>  <s_lp_Force_Field>  (1) 
S-OPLS

>  <s_lp_Variant>  (1) 
DiffSBDD_6_num_sample_100-3

>  <s_m_source_file>  (1) 
generated__ligand_DiffSBDD_2026-05-06_prepared.sdf

>  <GenAI_Model>  (1) 
DiffSBDD

>  <Protein>  (1) 
generic_title2

$$$$
DiffSBDD_18_num_sample_100
     RDKit          3D

  0  0  0  0  0  0  0  0  0  0999 V3000
M  V30 BEGIN CTAB
M  V30 COUNTS 53 56 0 0 1
M  V30 BEGIN ATOM
M  V30 1 C 12.310880 3.781951 -17.369404 0
M  V30 2 O 15.751213 0.443667 -19.979761 0 CHG=-1
M  V30 3 O 5.752066 7.086381 -17.752327 0
M  V30 4 C 15.035264 1.406720 -16.903260 0
M  V30 5 C 7.084238 4.786926 -16.036137 0 CFG=2
M  V30 6 O 14.468358 2.784279 -16.691681 0
M  V30 7 C 4.522410 6.831990 -18.412828 0
M  V30 8 C 5.858256 6.713952 -13.970009 0
M  V30 9 S 7.943512 3.226744 -16.367326 0
M  V30 10 C 8.245472 4.109448 -17.909942 0 CFG=2
M  V30 11 C 8.090383 4.987996 -13.796581 0
M  V30 12 C 14.591414 -0.011455 -19.861680 0
M  V30 13 S 9.894792 4.871850 -18.130001 0
M  V30 14 C 7.015793 5.006182 -17.590753 0 CFG=2
M  V30 15 C 7.144594 6.894202 -14.804218 0
M  V30 16 O 13.766978 -0.171447 -20.788022 0
M  V30 17 C 11.694014 1.214528 -18.379357 0
M  V30 18 N 13.916032 0.671026 -17.491667 0
M  V30 19 C 12.906627 1.503842 -17.733062 0
M  V30 20 C 11.060568 3.554077 -17.994948 0
M  V30 21 O 6.161582 6.036102 -12.755518 0
M  V30 22 C 7.008358 6.384109 -19.768651 0
M  V30 23 C 14.139811 -0.410772 -18.453304 0
M  V30 24 C 13.206708 2.709781 -17.264670 0
M  V30 25 C 10.748155 2.260096 -18.511682 0
M  V30 26 C 6.815283 4.785562 -12.950330 0
M  V30 27 N 7.834836 5.633636 -15.091651 0
M  V30 28 C 6.908796 6.395616 -18.229392 0 CFG=1
M  V30 29 H 12.566333 4.756060 -16.979716 0
M  V30 30 H 15.834838 1.449801 -17.632119 0
M  V30 31 H 15.345628 0.936918 -15.969538 0
M  V30 32 H 6.103992 4.569302 -15.627722 0
M  V30 33 H 3.696284 7.208891 -17.809689 0
M  V30 34 H 4.485099 7.341641 -19.375940 0
M  V30 35 H 4.366995 5.769309 -18.579019 0
M  V30 36 H 5.427052 7.684872 -13.729975 0
M  V30 37 H 5.095634 6.164577 -14.521872 0
M  V30 38 H 8.028989 3.464224 -18.761075 0
M  V30 39 H 8.610719 4.039485 -13.922124 0
M  V30 40 H 8.781276 5.610777 -13.226636 0
M  V30 41 H 6.160838 4.434359 -17.944732 0
M  V30 42 H 7.820255 7.544936 -14.247923 0
M  V30 43 H 6.918857 7.433392 -15.718431 0
M  V30 44 H 11.482399 0.225209 -18.755928 0
M  V30 45 H 7.973087 6.001393 -20.100219 0
M  V30 46 H 6.240052 5.760250 -20.225444 0
M  V30 47 H 6.910323 7.392941 -20.170403 0
M  V30 48 H 14.914678 -1.057570 -18.042833 0
M  V30 49 H 13.250481 -1.030694 -18.517695 0
M  V30 50 H 9.801634 2.076613 -18.995062 0
M  V30 51 H 7.073213 4.369297 -11.976271 0
M  V30 52 H 6.132879 4.077762 -13.422155 0
M  V30 53 H 7.761324 6.969297 -17.891669 0
M  V30 END ATOM
M  V30 BEGIN BOND
M  V30 1 1 6 4
M  V30 2 1 7 3
M  V30 3 1 9 5
M  V30 4 1 10 9
M  V30 5 1 12 2
M  V30 6 1 13 10
M  V30 7 1 14 5
M  V30 8 1 14 10
M  V30 9 1 15 8
M  V30 10 2 16 12
M  V30 11 1 18 4
M  V30 12 1 19 17
M  V30 13 1 19 18
M  V30 14 2 20 1
M  V30 15 1 20 13
M  V30 16 1 21 8
M  V30 17 1 23 12
M  V30 18 1 23 18
M  V30 19 1 24 1
M  V30 20 1 24 6
M  V30 21 2 24 19
M  V30 22 2 25 17
M  V30 23 1 25 20
M  V30 24 1 26 11
M  V30 25 1 26 21
M  V30 26 1 27 5
M  V30 27 1 27 11
M  V30 28 1 27 15
M  V30 29 1 28 3
M  V30 30 1 28 14
M  V30 31 1 28 22
M  V30 32 1 29 1
M  V30 33 1 30 4
M  V30 34 1 31 4
M  V30 35 1 5 32 CFG=1
M  V30 36 1 33 7
M  V30 37 1 34 7
M  V30 38 1 35 7
M  V30 39 1 36 8
M  V30 40 1 37 8
M  V30 41 1 10 38 CFG=3
M  V30 42 1 39 11
M  V30 43 1 40 11
M  V30 44 1 14 41 CFG=3
M  V30 45 1 42 15
M  V30 46 1 43 15
M  V30 47 1 44 17
M  V30 48 1 45 22
M  V30 49 1 46 22
M  V30 50 1 47 22
M  V30 51 1 48 23
M  V30 52 1 49 23
M  V30 53 1 50 25
M  V30 54 1 51 26
M  V30 55 1 52 26
M  V30 56 1 28 53 CFG=1
M  V30 END BOND
M  V30 END CTAB
M  END
>  <i_epik_Tot_Q>  (1) 
-1

>  <i_epik_Tot_abs_Q>  (1) 
1

>  <i_i_glide_confnum>  (1) 
12

>  <i_i_glide_lignum>  (1) 
30

>  <i_i_glide_posenum>  (1) 
110

>  <i_i_glide_rotatable_bonds>  (1) 
7

>  <i_lp_mmshare_version>  (1) 
72125

>  <i_m_source_file_index>  (1) 
19

>  <i_f3d_flags>  (1) 
0

>  <num_sample>  (1) 
100

>  <b_lp_Chiralities_Consistent>  (1) 
1

>  <r_epik_Charging_Adjusted_Penalty>  (1) 
0.00040573195342964225

>  <r_epik_Ionization_Penalty>  (1) 
0.00047194480807020967

>  <r_epik_Ionization_Penalty_Charging>  (1) 
0.00040573195342964225

>  <r_epik_Ionization_Penalty_Neutral>  (1) 
6.6212854640567391e-05

>  <r_epik_State_Penalty>  (1) 
-0

>  <r_glide_ring_energy>  (1) 
0

>  <r_i_docking_score>  (1) 
-3.4908210670601907

>  <r_i_glide_ecoul>  (1) 
1.9117825600484553

>  <r_i_glide_eff_state_penalty>  (1) 
-0

>  <r_i_glide_einternal>  (1) 
1.9352953633116421

>  <r_i_glide_emodel>  (1) 
-29.04411883946419

>  <r_i_glide_emodel_strain>  (1) 
0.34003202273663646

>  <r_i_glide_energy>  (1) 
-24.680461905187766

>  <r_i_glide_erotb>  (1) 
0.54773737594122907

>  <r_i_glide_esite>  (1) 
0

>  <r_i_glide_evdw>  (1) 
-26.59224446523622

>  <r_i_glide_gscore>  (1) 
-3.4908210670601907

>  <r_i_glide_gscore_strain>  (1) 
0

>  <r_i_glide_hbond>  (1) 
0

>  <r_i_glide_ligand_efficiency>  (1) 
-0.12467218096643538

>  <r_i_glide_ligand_efficiency_ln>  (1) 
-0.80578399723770522

>  <r_i_glide_ligand_efficiency_sa>  (1) 
-0.37857816982236464

>  <r_i_glide_lipo>  (1) 
-1.8961798474213545

>  <r_i_glide_metal>  (1) 
-0

>  <r_i_glide_rewards>  (1) 
-1.0995337563255223

>  <r_lp_Energy>  (1) 
43.419910999999999

>  <r_lp_tautomer_probability>  (1) 
1

>  <s_epik_Chemistry_Notes>  (1) 
This compound contains an acetal/aminal-like group ( X-CH(R)-Y where X, Y are N, S, or O) that may be acid/base labile, releasing an aldehyde.

>  <s_epik_cmdline>  (1) 
J2VwaWtfcHl0aG9uJywgJy1waHQnLCAnMS4wJywgJy1waCcsICc3LjQnLCAnLXRuJywgJzgnLCAnLW1hJywgJzUwMCcsICctaW1hZScsICc8aW5maWxlLm1hZT4nLCAnLW9tYWUnLCAnPG91dGZpbGUubWFlPic=

>  <s_epik_input>  (1) 
W09IXUMoPU8pW0NIMl1OMVtDSDJdT2MoYzEyKVtjSF1jKFtjSF1bY0hdMilTW0NASF0oW0NAQEhdM1tDQEBIXShbQ0gzXSlPW0NIM10pU1tDQEhdM040W0NIMl1bQ0gyXU9bQ0gyXVtDSDJdNA==

>  <s_glide_docking_method>  (1) 
confgen

>  <s_i_glide_gridfile>  (1) 
gpcr_drd2_6luq_protein_autoprepared_prepared

>  <s_lp_Force_Field>  (1) 
S-OPLS

>  <s_lp_Variant>  (1) 
DiffSBDD_18_num_sample_100-1

>  <s_m_source_file>  (1) 
generated__ligand_DiffSBDD_2026-05-06_prepared.sdf

>  <GenAI_Model>  (1) 
DiffSBDD

>  <Protein>  (1) 
generic_title2

$$$$
DiffSBDD_11_num_sample_100
     RDKit          3D

  0  0  0  0  0  0  0  0  0  0999 V3000
M  V30 BEGIN CTAB
M  V30 COUNTS 56 58 0 0 1
M  V30 BEGIN ATOM
M  V30 1 C 15.847097 6.515823 -17.555985 0 CFG=1
M  V30 2 C 9.282539 0.827318 -17.689228 0 CFG=2
M  V30 3 N 15.517187 7.987849 -19.569375 0
M  V30 4 C 10.348106 3.491479 -18.571962 0 CFG=1
M  V30 5 O 15.434826 9.769300 -18.173854 0
M  V30 6 C 17.029330 5.731737 -18.163332 0
M  V30 7 S 8.861123 3.599003 -17.550872 0
M  V30 8 O 6.860206 -2.065657 -17.491672 0
M  V30 9 O 10.351586 1.108123 -18.588080 0
M  V30 10 C 11.175405 4.767571 -18.498829 0
M  V30 11 C 14.703016 4.308225 -16.785286 0
M  V30 12 C 6.919980 1.705995 -17.551050 0
M  V30 13 C 8.656231 -0.526491 -18.075793 0
M  V30 14 C 12.352238 4.881684 -17.522128 0
M  V30 15 C 12.191037 5.986344 -16.482523 0
M  V30 16 C 15.732428 9.278657 -19.262216 0
M  V30 17 C 8.241918 1.943798 -17.596787 0
M  V30 18 C 14.883950 7.051800 -18.642156 0
M  V30 19 C 13.473134 4.078782 -17.631712 0
M  V30 20 C 16.377352 10.138924 -20.342186 0
M  V30 21 Cl 5.498436 0.034251 -19.146021 0
M  V30 22 C 11.132154 2.244132 -18.236094 0 CFG=1
M  V30 23 C 15.126856 5.748246 -16.406226 0
M  V30 24 C 6.306428 0.317294 -17.578332 0 CFG=1
M  V30 25 C 7.366123 -0.765336 -17.275311 0 CFG=1
M  V30 26 O 15.434835 3.378978 -16.443400 0
M  V30 27 C 12.501660 2.156129 -18.880500 0
M  V30 28 C 13.547841 2.951549 -18.569169 0
M  V30 29 H 16.304714 7.385060 -17.091669 0
M  V30 30 H 9.694992 0.722055 -16.691670 0
M  V30 31 H 15.785585 7.644866 -20.479846 0
M  V30 32 H 9.988792 3.397064 -19.597760 0
M  V30 33 H 16.694136 4.873223 -18.745746 0
M  V30 34 H 17.699773 5.369281 -17.383465 0
M  V30 35 H 17.621182 6.362291 -18.827190 0
M  V30 36 H 7.202743 -2.630677 -16.808429 0
M  V30 37 H 11.622946 4.911284 -19.483362 0
M  V30 38 H 10.516459 5.630801 -18.396462 0
M  V30 39 H 6.234839 2.534371 -17.491697 0
M  V30 40 H 8.434624 -0.544646 -19.143599 0
M  V30 41 H 9.373905 -1.327096 -17.893178 0
M  V30 42 H 11.127886 6.122797 -16.283244 0
M  V30 43 H 12.552879 6.956591 -16.810324 0
M  V30 44 H 12.590161 5.708093 -15.507657 0
M  V30 45 H 14.470047 6.229203 -19.224994 0
M  V30 46 H 14.037445 7.560405 -18.186209 0
M  V30 47 H 16.166121 9.749585 -21.338516 0
M  V30 48 H 17.457786 10.169285 -20.202248 0
M  V30 49 H 15.990662 11.157549 -20.291938 0
M  V30 50 H 11.322544 2.218863 -17.160801 0
M  V30 51 H 15.868959 5.613303 -15.618424 0
M  V30 52 H 14.403259 6.383112 -15.920136 0
M  V30 53 H 5.524893 0.269977 -16.819035 0
M  V30 54 H 7.613194 -0.704833 -16.214046 0
M  V30 55 H 12.646848 1.346306 -19.580744 0
M  V30 56 H 14.502996 2.731694 -19.024321 0
M  V30 END ATOM
M  V30 BEGIN BOND
M  V30 1 1 6 1
M  V30 2 1 7 4
M  V30 3 1 9 2
M  V30 4 1 10 4
M  V30 5 1 13 2
M  V30 6 1 14 10
M  V30 7 1 15 14
M  V30 8 1 16 3
M  V30 9 2 16 5
M  V30 10 1 17 2
M  V30 11 1 17 7
M  V30 12 2 17 12
M  V30 13 1 18 1
M  V30 14 1 18 3
M  V30 15 1 19 11
M  V30 16 2 19 14
M  V30 17 1 20 16
M  V30 18 1 22 4
M  V30 19 1 22 9
M  V30 20 1 23 1
M  V30 21 1 23 11
M  V30 22 1 24 12
M  V30 23 1 24 21
M  V30 24 1 25 8
M  V30 25 1 25 13
M  V30 26 1 25 24
M  V30 27 2 26 11
M  V30 28 1 27 22
M  V30 29 1 28 19
M  V30 30 2 28 27
M  V30 31 1 1 29 CFG=1
M  V30 32 1 2 30 CFG=1
M  V30 33 1 31 3
M  V30 34 1 4 32 CFG=3
M  V30 35 1 33 6
M  V30 36 1 34 6
M  V30 37 1 35 6
M  V30 38 1 36 8
M  V30 39 1 37 10
M  V30 40 1 38 10
M  V30 41 1 39 12
M  V30 42 1 40 13
M  V30 43 1 41 13
M  V30 44 1 42 15
M  V30 45 1 43 15
M  V30 46 1 44 15
M  V30 47 1 45 18
M  V30 48 1 46 18
M  V30 49 1 47 20
M  V30 50 1 48 20
M  V30 51 1 49 20
M  V30 52 1 22 50 CFG=1
M  V30 53 1 51 23
M  V30 54 1 52 23
M  V30 55 1 24 53 CFG=1
M  V30 56 1 25 54 CFG=1
M  V30 57 1 55 27
M  V30 58 1 56 28
M  V30 END BOND
M  V30 END CTAB
M  END
>  <i_epik_Tot_Q>  (1) 
0

>  <i_epik_Tot_abs_Q>  (1) 
0

>  <i_i_glide_confnum>  (1) 
151

>  <i_i_glide_lignum>  (1) 
19

>  <i_i_glide_posenum>  (1) 
30

>  <i_i_glide_rotatable_bonds>  (1) 
7

>  <i_lp_mmshare_version>  (1) 
72125

>  <i_m_source_file_index>  (1) 
12

>  <i_f3d_flags>  (1) 
0

>  <num_sample>  (1) 
100

>  <b_lp_Chiralities_Consistent>  (1) 
1

>  <r_epik_Charging_Adjusted_Penalty>  (1) 
0

>  <r_epik_Ionization_Penalty>  (1) 
0.000136015572717869

>  <r_epik_Ionization_Penalty_Charging>  (1) 
0

>  <r_epik_Ionization_Penalty_Neutral>  (1) 
0.000136015572717869

>  <r_epik_State_Penalty>  (1) 
-0

>  <r_glide_ring_energy>  (1) 
0

>  <r_i_docking_score>  (1) 
-3.4786814722252553

>  <r_i_glide_ecoul>  (1) 
-3.902414088364174

>  <r_i_glide_eff_state_penalty>  (1) 
-0

>  <r_i_glide_einternal>  (1) 
19.103824547497926

>  <r_i_glide_emodel>  (1) 
-24.658908707393124

>  <r_i_glide_emodel_strain>  (1) 
0.54922664126038967

>  <r_i_glide_energy>  (1) 
-30.736338562849603

>  <r_i_glide_erotb>  (1) 
0.5467392007768872

>  <r_i_glide_esite>  (1) 
0

>  <r_i_glide_evdw>  (1) 
-26.833924474485428

>  <r_i_glide_gscore>  (1) 
-3.4786814722252553

>  <r_i_glide_gscore_strain>  (1) 
0

>  <r_i_glide_hbond>  (1) 
-0.36219333216363031

>  <r_i_glide_ligand_efficiency>  (1) 
-0.12423862400804483

>  <r_i_glide_ligand_efficiency_ln>  (1) 
-0.80298182231580972

>  <r_i_glide_ligand_efficiency_sa>  (1) 
-0.3772616355438359

>  <r_i_glide_lipo>  (1) 
-0.98941489692528073

>  <r_i_glide_metal>  (1) 
-0

>  <r_i_glide_rewards>  (1) 
-0.74675410693433386

>  <r_lp_Energy>  (1) 
20.078344999999999

>  <r_lp_tautomer_probability>  (1) 
1

>  <s_epik_cmdline>  (1) 
J2VwaWtfcHl0aG9uJywgJy1waHQnLCAnMS4wJywgJy1waCcsICc3LjQnLCAnLXRuJywgJzgnLCAnLW1hJywgJzUwMCcsICctaW1hZScsICc8aW5maWxlLm1hZT4nLCAnLW9tYWUnLCAnPG91dGZpbGUubWFlPic=

>  <s_epik_input>  (1) 
Tz1DKFtDSDNdKVtOSF1bQ0gyXVtDQEhdKFtDSDNdKVtDSDJdQyg9TylDKD1DKFtDSDJdMSlbQ0gzXSlbQ0hdPVtDSF1bQ0BIXShPMilbQ0BIXTFTQyhbQ0BASF0yMyk9W0NIXVtDQEBIXShDbClbQ0BASF0oW09IXSlbQ0gyXTM=

>  <s_glide_docking_method>  (1) 
confgen

>  <s_i_glide_gridfile>  (1) 
gpcr_drd2_6luq_protein_autoprepared_prepared

>  <s_lp_Force_Field>  (1) 
S-OPLS

>  <s_lp_Variant>  (1) 
DiffSBDD_11_num_sample_100-2

>  <s_m_source_file>  (1) 
generated__ligand_DiffSBDD_2026-05-06_prepared.sdf

>  <GenAI_Model>  (1) 
DiffSBDD

>  <Protein>  (1) 
generic_title2

$$$$
DiffSBDD_82_num_sample_100
     RDKit          3D

  0  0  0  0  0  0  0  0  0  0999 V3000
M  V30 BEGIN CTAB
M  V30 COUNTS 64 68 0 0 1
M  V30 BEGIN ATOM
M  V30 1 C 16.121561 9.239236 -21.256009 0
M  V30 2 N 6.684674 1.110617 -17.271558 0
M  V30 3 C 13.646327 5.195206 -19.585559 0
M  V30 4 C 14.438220 9.381064 -18.815015 0
M  V30 5 O 12.894121 7.769296 -17.060023 0
M  V30 6 C 16.137554 10.198692 -20.071887 0
M  V30 7 O 6.708987 0.997012 -15.002374 0
M  V30 8 C 10.790057 4.866795 -17.831867 0 CFG=2
M  V30 9 C 9.124415 4.071613 -19.717559 0
M  V30 10 C 7.539976 3.253311 -14.660697 0
M  V30 11 F 17.320129 11.073746 -22.254933 0
M  V30 12 C 7.764525 3.197306 -17.668701 0 CFG=1
M  V30 13 C 8.428589 4.332852 -16.858942 0 CFG=1
M  V30 14 F 6.449013 4.969298 -15.805720 0
M  V30 15 C 7.669685 4.515696 -15.518043 0
M  V30 16 F 15.723404 7.341676 -22.490469 0
M  V30 17 C 12.298727 4.980257 -17.431900 0 CFG=1
M  V30 18 C 14.187169 7.926655 -19.097163 0
M  V30 19 C 12.972011 3.624980 -17.123725 0
M  V30 20 C 14.704304 7.299025 -20.281239 0
M  V30 21 C 13.402288 7.170568 -18.180488 0
M  V30 22 O 16.833706 9.710113 -22.328109 0
M  V30 23 C 6.236104 0.569297 -16.204726 0
M  V30 24 C 7.670282 1.916298 -15.389953 0 CFG=2
M  V30 25 C 9.963876 4.160129 -16.722276 0
M  V30 26 C 13.138860 5.803845 -18.425642 0
M  V30 27 C 5.207422 -0.518079 -16.157968 0
M  V30 28 C 8.427304 2.888523 -19.028466 0
M  V30 29 N 7.634933 1.981320 -16.857735 0
M  V30 30 C 7.335909 3.316050 -13.334173 0
M  V30 31 C 15.537730 8.007411 -21.336165 0
M  V30 32 C 10.578226 4.264363 -19.246377 0
M  V30 33 F 8.269819 5.487654 -14.827496 0
M  V30 34 C 14.409812 5.932255 -20.502305 0
M  V30 35 N 15.834767 9.672941 -18.774902 0
M  V30 36 H 13.443915 4.153262 -19.779717 0
M  V30 37 H 14.100624 9.642001 -17.815374 0
M  V30 38 H 13.857408 10.011991 -19.491503 0
M  V30 39 H 12.752395 8.702768 -17.166269 0
M  V30 40 H 17.158153 10.569303 -19.980505 0
M  V30 41 H 15.524729 11.073861 -20.295316 0
M  V30 42 H 10.426315 5.894603 -17.878730 0
M  V30 43 H 9.158668 3.853047 -20.785604 0
M  V30 44 H 8.545954 4.991585 -19.632150 0
M  V30 45 H 6.752453 3.540759 -17.889874 0
M  V30 46 H 8.265820 5.269207 -17.393066 0
M  V30 47 H 12.320913 5.500885 -16.474798 0
M  V30 48 H 14.012465 3.770580 -16.832089 0
M  V30 49 H 12.957658 2.940879 -17.970679 0
M  V30 50 H 12.488897 3.119529 -16.291703 0
M  V30 51 H 8.634839 1.491903 -15.122682 0
M  V30 52 H 10.280944 4.569314 -15.762584 0
M  V30 53 H 10.214561 3.100306 -16.691677 0
M  V30 54 H 5.384580 -1.259307 -16.937395 0
M  V30 55 H 4.204310 -0.116134 -16.291280 0
M  V30 56 H 5.238431 -1.030692 -15.197499 0
M  V30 57 H 9.148954 2.077977 -18.914654 0
M  V30 58 H 7.659434 2.490892 -19.693220 0
M  V30 59 H 7.250345 4.266252 -12.827768 0
M  V30 60 H 7.251964 2.417154 -12.740795 0
M  V30 61 H 11.045726 4.924211 -19.975850 0
M  V30 62 H 11.103223 3.312913 -19.327880 0
M  V30 63 H 14.784308 5.442264 -21.389019 0
M  V30 64 H 16.369345 8.830814 -18.613846 0
M  V30 END ATOM
M  V30 BEGIN BOND
M  V30 1 1 6 1
M  V30 2 1 13 12
M  V30 3 1 15 10
M  V30 4 1 15 13
M  V30 5 1 15 14
M  V30 6 1 17 8
M  V30 7 1 18 4
M  V30 8 1 19 17
M  V30 9 2 20 18
M  V30 10 1 21 5
M  V30 11 1 21 18
M  V30 12 1 22 1
M  V30 13 1 22 11
M  V30 14 2 23 2
M  V30 15 1 23 7
M  V30 16 1 24 7
M  V30 17 1 24 10
M  V30 18 1 25 8
M  V30 19 1 25 13
M  V30 20 1 26 3
M  V30 21 1 26 17
M  V30 22 2 26 21
M  V30 23 1 27 23
M  V30 24 1 28 9
M  V30 25 1 28 12
M  V30 26 1 29 2
M  V30 27 1 29 12
M  V30 28 1 29 24
M  V30 29 2 30 10
M  V30 30 2 31 1
M  V30 31 1 31 16
M  V30 32 1 31 20
M  V30 33 1 32 8
M  V30 34 1 32 9
M  V30 35 1 33 15
M  V30 36 2 34 3
M  V30 37 1 34 20
M  V30 38 1 35 4
M  V30 39 1 35 6
M  V30 40 1 36 3
M  V30 41 1 37 4
M  V30 42 1 38 4
M  V30 43 1 39 5
M  V30 44 1 40 6
M  V30 45 1 41 6
M  V30 46 1 8 42 CFG=3
M  V30 47 1 43 9
M  V30 48 1 44 9
M  V30 49 1 12 45 CFG=3
M  V30 50 1 13 46 CFG=3
M  V30 51 1 17 47 CFG=1
M  V30 52 1 48 19
M  V30 53 1 49 19
M  V30 54 1 50 19
M  V30 55 1 24 51 CFG=3
M  V30 56 1 52 25
M  V30 57 1 53 25
M  V30 58 1 54 27
M  V30 59 1 55 27
M  V30 60 1 56 27
M  V30 61 1 57 28
M  V30 62 1 58 28
M  V30 63 1 59 30
M  V30 64 1 60 30
M  V30 65 1 61 32
M  V30 66 1 62 32
M  V30 67 1 63 34
M  V30 68 1 64 35
M  V30 END BOND
M  V30 END CTAB
M  END
>  <i_epik_Tot_Q>  (1) 
0

>  <i_epik_Tot_abs_Q>  (1) 
0

>  <i_i_glide_confnum>  (1) 
1

>  <i_i_glide_lignum>  (1) 
167

>  <i_i_glide_posenum>  (1) 
375

>  <i_i_glide_rotatable_bonds>  (1) 
4

>  <i_lp_mmshare_version>  (1) 
72125

>  <i_m_source_file_index>  (1) 
83

>  <i_f3d_flags>  (1) 
0

>  <num_sample>  (1) 
100

>  <b_lp_Chiralities_Consistent>  (1) 
1

>  <r_epik_Charging_Adjusted_Penalty>  (1) 
0.046558445642634526

>  <r_epik_Ionization_Penalty>  (1) 
0.046507495434493687

>  <r_epik_Ionization_Penalty_Charging>  (1) 
0

>  <r_epik_Ionization_Penalty_Neutral>  (1) 
0.046507495434493687

>  <r_epik_State_Penalty>  (1) 
0.046558445642634526

>  <r_glide_ring_energy>  (1) 
0

>  <r_i_docking_score>  (1) 
-3.4754102715663118

>  <r_i_glide_ecoul>  (1) 
-4.3638774986237499

>  <r_i_glide_eff_state_penalty>  (1) 
0.046558445642634526

>  <r_i_glide_einternal>  (1) 
2.4614864685288627

>  <r_i_glide_emodel>  (1) 
-34.715349817715328

>  <r_i_glide_emodel_strain>  (1) 
1.1627278022287015

>  <r_i_glide_energy>  (1) 
-31.392461991686975

>  <r_i_glide_erotb>  (1) 
0.1660487774470758

>  <r_i_glide_esite>  (1) 
0

>  <r_i_glide_evdw>  (1) 
-27.028584493063224

>  <r_i_glide_gscore>  (1) 
-3.5219687172089462

>  <r_i_glide_gscore_strain>  (1) 
0

>  <r_i_glide_hbond>  (1) 
0

>  <r_i_glide_ligand_efficiency>  (1) 
-0.099297436330466046

>  <r_i_glide_ligand_efficiency_ln>  (1) 
-0.76292968718398968

>  <r_i_glide_ligand_efficiency_sa>  (1) 
-0.32480849866868405

>  <r_i_glide_lipo>  (1) 
-0.89299466462178512

>  <r_i_glide_metal>  (1) 
-0

>  <r_i_glide_rewards>  (1) 
-0.78901198058751265

>  <r_lp_Energy>  (1) 
60.372588

>  <r_lp_tautomer_probability>  (1) 
0.99999999486000002

>  <s_epik_Chemistry_Notes>  (1) 
This compound has an imine and may undergo hydrolysis. This compound contains an acetal/aminal-like group ( X-CH(R)-Y where X, Y are N, S, or O) that may be acid/base labile, releasing an aldehyde.

>  <s_epik_cmdline>  (1) 
J2VwaWtfcHl0aG9uJywgJy1waHQnLCAnMS4wJywgJy1waCcsICc3LjQnLCAnLXRuJywgJzgnLCAnLW1hJywgJzUwMCcsICctaW1hZScsICc8aW5maWxlLm1hZT4nLCAnLW9tYWUnLCAnPG91dGZpbGUubWFlPic=

>  <s_epik_input>  (1) 
W0NIMl0xW05IXVtDSDJdQyhPRik9QyhGKWMoYzEyKVtjSF1bY0hdYyhjMltPSF0pW0NASF0oW0NIM10pW0NAQEhdKFtDSDJdW0NIMl1bQ0gyXTMpW0NIMl1bQ0BASF0oW0NAQEhdMzQpQyhGKShGKUMoPVtDSDJdKVtDQEBIXTVONE49QyhPNSlbQ0gzXQ==

>  <s_glide_docking_method>  (1) 
confgen

>  <s_i_glide_gridfile>  (1) 
gpcr_drd2_6luq_protein_autoprepared_prepared

>  <s_lp_Force_Field>  (1) 
S-OPLS

>  <s_lp_Variant>  (1) 
DiffSBDD_82_num_sample_100-1

>  <s_m_source_file>  (1) 
generated__ligand_DiffSBDD_2026-05-06_prepared.sdf

>  <GenAI_Model>  (1) 
DiffSBDD

>  <Protein>  (1) 
generic_title2

$$$$
DiffSBDD_56_num_sample_100
     RDKit          3D

  0  0  0  0  0  0  0  0  0  0999 V3000
M  V30 BEGIN CTAB
M  V30 COUNTS 70 76 0 0 1
M  V30 BEGIN ATOM
M  V30 1 O 10.290819 7.081741 -7.960368 0
M  V30 2 C 10.832318 2.793160 -20.011362 0
M  V30 3 C 14.274248 4.278989 -19.476967 0
M  V30 4 C 12.069794 5.593338 -19.949594 0
M  V30 5 C 8.129628 4.680285 -12.632945 0 CFG=2
M  V30 6 C 10.143785 5.198684 -18.208626 0
M  V30 7 F 9.740580 5.292626 -20.602610 0
M  V30 8 C 8.654904 5.582724 -8.934108 0
M  V30 9 C 7.997518 4.699371 -16.963440 0 CFG=1
M  V30 10 C 9.728016 6.483119 -9.083117 0
M  V30 11 C 9.567972 2.545478 -19.767654 0
M  V30 12 C 9.155202 5.321037 -14.952541 0 CFG=1
M  V30 13 C 7.035284 3.958528 -16.070341 0
M  V30 14 N 9.346207 5.105844 -13.483327 0 CFG=1 CHG=1
M  V30 15 C 12.859002 2.331382 -21.348262 0
M  V30 16 C 10.552840 5.674227 -19.614932 0 CFG=2
M  V30 17 C 9.656598 6.092184 -11.472073 0
M  V30 18 C 11.317559 8.090305 -8.064924 0
M  V30 19 C 11.360382 7.639288 -10.511725 0
M  V30 20 C 12.075057 3.104431 -20.296376 0
M  V30 21 C 8.156409 5.271702 -7.567738 0
M  V30 22 C 10.129883 6.250019 -12.831591 0
M  V30 23 C 10.550659 5.417406 -15.650139 0
M  V30 24 C 11.874226 8.265788 -9.459918 0
M  V30 25 C 10.789657 5.741170 -17.136576 0
M  V30 26 C 10.234829 6.742733 -10.365885 0
M  V30 27 C 13.394529 4.043180 -18.284338 0
M  V30 28 C 8.453331 4.189520 -15.634073 0 CFG=1
M  V30 29 O 13.705354 1.369393 -20.749380 0
M  V30 30 C 8.968992 4.304736 -17.999028 0
M  V30 31 C 8.619421 5.259719 -11.342975 0
M  V30 32 C 7.866646 3.169941 -12.625060 0
M  V30 33 C 8.703218 3.180395 -18.750899 0
M  V30 34 C 8.075751 4.969317 -10.077800 0
M  V30 35 C 12.760180 4.262547 -19.651054 0
M  V30 36 H 14.870147 3.436526 -19.816628 0
M  V30 37 H 14.781980 5.239621 -19.534075 0
M  V30 38 H 12.214167 5.830658 -21.004383 0
M  V30 39 H 12.596072 6.378275 -19.404413 0
M  V30 40 H 7.243664 5.231788 -12.950780 0
M  V30 41 H 7.729233 5.747808 -17.088696 0
M  V30 42 H 9.119089 1.718322 -20.297321 0
M  V30 43 H 8.569185 6.226832 -15.084544 0
M  V30 44 H 6.760342 2.939165 -16.339062 0
M  V30 45 H 6.275228 4.527379 -15.535589 0
M  V30 46 H 13.445829 3.024894 -21.952722 0
M  V30 47 H 12.182042 1.811262 -22.027930 0
M  V30 48 H 10.336319 6.743217 -19.592383 0
M  V30 49 H 10.911748 9.037282 -7.714026 0
M  V30 50 H 12.134762 7.816255 -7.398405 0
M  V30 51 H 11.779486 7.769313 -11.490843 0
M  V30 52 H 7.434853 4.460841 -7.534870 0
M  V30 53 H 9.075241 4.969326 -7.091429 0
M  V30 54 H 7.835132 6.149501 -7.016576 0
M  V30 55 H 11.211430 6.169321 -12.935553 0
M  V30 56 H 9.750994 7.228862 -13.091666 0
M  V30 57 H 11.080912 4.483267 -15.492083 0
M  V30 58 H 11.162026 6.169301 -15.153875 0
M  V30 59 H 12.719594 8.929994 -9.577238 0
M  V30 60 H 11.596576 6.434782 -17.325833 0
M  V30 61 H 13.350574 4.843384 -17.549147 0
M  V30 62 H 13.370429 3.038010 -17.866751 0
M  V30 63 H 9.034614 3.275539 -15.649142 0
M  V30 64 H 13.171994 0.762304 -20.258667 0
M  V30 65 H 6.999451 2.969563 -11.997366 0
M  V30 66 H 7.617971 2.782355 -13.610817 0
M  V30 67 H 8.721161 2.604217 -12.255117 0
M  V30 68 H 7.779346 2.665061 -18.530703 0
M  V30 69 H 7.246138 4.285402 -9.974992 0
M  V30 70 H 9.981449 4.322748 -13.401696 0
M  V30 END ATOM
M  V30 BEGIN BOND
M  V30 1 1 10 1
M  V30 2 1 10 8
M  V30 3 2 11 2
M  V30 4 1 13 9
M  V30 5 1 14 5
M  V30 6 1 14 12
M  V30 7 1 16 4
M  V30 8 1 16 6
M  V30 9 1 16 7
M  V30 10 1 18 1
M  V30 11 2 20 2
M  V30 12 1 20 15
M  V30 13 1 21 8
M  V30 14 1 22 14
M  V30 15 1 22 17
M  V30 16 1 23 12
M  V30 17 1 24 18
M  V30 18 2 24 19
M  V30 19 2 25 6
M  V30 20 1 25 23
M  V30 21 2 26 10
M  V30 22 1 26 17
M  V30 23 1 26 19
M  V30 24 1 27 3
M  V30 25 1 28 9
M  V30 26 1 28 12
M  V30 27 1 28 13
M  V30 28 1 29 15
M  V30 29 1 30 6
M  V30 30 1 30 9
M  V30 31 1 31 5
M  V30 32 2 31 17
M  V30 33 1 32 5
M  V30 34 1 33 11
M  V30 35 2 33 30
M  V30 36 2 34 8
M  V30 37 1 34 31
M  V30 38 1 35 3
M  V30 39 1 35 4
M  V30 40 1 35 20
M  V30 41 1 35 27
M  V30 42 1 36 3
M  V30 43 1 37 3
M  V30 44 1 38 4
M  V30 45 1 39 4
M  V30 46 1 5 40 CFG=3
M  V30 47 1 9 41 CFG=1
M  V30 48 1 42 11
M  V30 49 1 12 43 CFG=1
M  V30 50 1 44 13
M  V30 51 1 45 13
M  V30 52 1 46 15
M  V30 53 1 47 15
M  V30 54 1 16 48 CFG=1
M  V30 55 1 49 18
M  V30 56 1 50 18
M  V30 57 1 51 19
M  V30 58 1 52 21
M  V30 59 1 53 21
M  V30 60 1 54 21
M  V30 61 1 55 22
M  V30 62 1 56 22
M  V30 63 1 57 23
M  V30 64 1 58 23
M  V30 65 1 59 24
M  V30 66 1 60 25
M  V30 67 1 61 27
M  V30 68 1 62 27
M  V30 69 1 28 63 CFG=3
M  V30 70 1 64 29
M  V30 71 1 65 32
M  V30 72 1 66 32
M  V30 73 1 67 32
M  V30 74 1 68 33
M  V30 75 1 69 34
M  V30 76 1 14 70 CFG=3
M  V30 END BOND
M  V30 END CTAB
M  END
>  <i_epik_Tot_Q>  (1) 
1

>  <i_epik_Tot_abs_Q>  (1) 
1

>  <i_i_glide_confnum>  (1) 
1

>  <i_i_glide_lignum>  (1) 
112

>  <i_i_glide_posenum>  (1) 
213

>  <i_i_glide_rotatable_bonds>  (1) 
3

>  <i_lp_mmshare_version>  (1) 
72125

>  <i_m_source_file_index>  (1) 
57

>  <i_f3d_flags>  (1) 
0

>  <num_sample>  (1) 
100

>  <b_lp_Chiralities_Consistent>  (1) 
1

>  <r_epik_Charging_Adjusted_Penalty>  (1) 
0.14231297848205576

>  <r_epik_Ionization_Penalty>  (1) 
0.071157794031890806

>  <r_epik_Ionization_Penalty_Charging>  (1) 
0.071156489241027923

>  <r_epik_Ionization_Penalty_Neutral>  (1) 
1.3047908628845687e-06

>  <r_epik_State_Penalty>  (1) 
0.071156489241027826

>  <r_glide_ring_energy>  (1) 
0

>  <r_i_docking_score>  (1) 
-3.4747850229981512

>  <r_i_glide_ecoul>  (1) 
-2.7168759983009436

>  <r_i_glide_eff_state_penalty>  (1) 
0.071156489241027826

>  <r_i_glide_einternal>  (1) 
0.27334286092305682

>  <r_i_glide_emodel>  (1) 
-22.916027636670638

>  <r_i_glide_emodel_strain>  (1) 
0.42836941675741969

>  <r_i_glide_energy>  (1) 
-18.549954228594302

>  <r_i_glide_erotb>  (1) 
0.18105195314905365

>  <r_i_glide_esite>  (1) 
0

>  <r_i_glide_evdw>  (1) 
-15.83307823029336

>  <r_i_glide_gscore>  (1) 
-3.5459415122391791

>  <r_i_glide_gscore_strain>  (1) 
0

>  <r_i_glide_hbond>  (1) 
0

>  <r_i_glide_ligand_efficiency>  (1) 
-0.099279572085661461

>  <r_i_glide_ligand_efficiency_ln>  (1) 
-0.7627924312466341

>  <r_i_glide_ligand_efficiency_sa>  (1) 
-0.32475006353934682

>  <r_i_glide_lipo>  (1) 
-1.4388077807186321

>  <r_i_glide_metal>  (1) 
-0

>  <r_i_glide_rewards>  (1) 
-1.0890003734097908

>  <r_lp_Energy>  (1) 
55.302659999999996

>  <s_epik_cmdline>  (1) 
J2VwaWtfcHl0aG9uJywgJy1waHQnLCAnMS4wJywgJy1waCcsICc3LjQnLCAnLXRuJywgJzgnLCAnLW1hJywgJzUwMCcsICctaW1hZScsICc8aW5maWxlLm1hZT4nLCAnLW9tYWUnLCAnPG91dGZpbGUubWFlPic=

>  <s_epik_input>  (1) 
TzFbQ0gyXVtDSF09W0NIXWMoYzEyKWMzYyhbY0hdYzJbQ0gzXSlbQ0BIXShbQ0gzXSlOKFtDSDJdMylbQ0BASF0oW0NIMl1bQ0hdNClbQ0BASF0oW0NIMl01KVtDQEhdNUMoXEM9NFtDQEhdKEYpW0NIMl1DNjdbQ0gyXVtDSDJdNyk9W0NIXVxbQ0hdPUM9QzZbQ0gyXVtPSF0=

>  <s_glide_docking_method>  (1) 
confgen

>  <s_i_glide_gridfile>  (1) 
gpcr_drd2_6luq_protein_autoprepared_prepared

>  <s_lp_Force_Field>  (1) 
S-OPLS

>  <s_lp_Variant>  (1) 
DiffSBDD_56_num_sample_100-1

>  <s_m_source_file>  (1) 
generated__ligand_DiffSBDD_2026-05-06_prepared.sdf

>  <GenAI_Model>  (1) 
DiffSBDD

>  <Protein>  (1) 
generic_title2

$$$$
DiffSBDD_56_num_sample_100
     RDKit          3D

  0  0  0  0  0  0  0  0  0  0999 V3000
M  V30 BEGIN CTAB
M  V30 COUNTS 70 76 0 0 1
M  V30 BEGIN ATOM
M  V30 1 O 6.250369 0.300323 -16.615085 0
M  V30 2 C 11.763499 8.440857 -7.784354 0
M  V30 3 C 11.406866 6.035402 -5.678926 0
M  V30 4 C 9.496116 6.860972 -7.260038 0
M  V30 5 C 8.606804 5.302113 -15.486040 0 CFG=2
M  V30 6 C 9.839093 6.586275 -9.827687 0
M  V30 7 F 9.833875 4.858891 -8.292262 0
M  V30 8 C 7.203123 2.371640 -17.459280 0
M  V30 9 C 10.645377 7.273940 -12.143517 0 CFG=1
M  V30 10 C 6.842150 1.531405 -16.372147 0
M  V30 11 C 12.308275 8.616342 -8.949735 0
M  V30 12 C 8.843976 6.161028 -13.050960 0 CFG=1
M  V30 13 C 11.620563 6.685387 -13.091753 0
M  V30 14 N 8.247469 5.187462 -13.988759 0 CFG=2 CHG=1
M  V30 15 C 11.842153 9.268909 -5.455042 0
M  V30 16 C 10.199177 6.132267 -8.433472 0 CFG=2
M  V30 17 C 7.684011 3.216473 -14.834464 0
M  V30 18 C 5.681788 -0.477238 -15.538802 0
M  V30 19 C 6.717578 1.121445 -13.939092 0
M  V30 20 C 11.397419 8.281001 -6.537216 0
M  V30 21 C 6.949994 1.926668 -18.885772 0
M  V30 22 C 7.978822 3.775810 -13.492999 0
M  V30 23 C 8.058713 6.442398 -11.742199 0
M  V30 24 C 6.073658 -0.009037 -14.149522 0
M  V30 25 C 8.648308 6.132200 -10.348084 0
M  V30 26 C 7.091025 1.964432 -15.041412 0
M  V30 27 C 10.294655 6.470020 -4.814463 0
M  V30 28 C 10.307728 5.953990 -12.760595 0 CFG=1
M  V30 29 O 12.220197 8.716112 -4.211647 0
M  V30 30 C 10.805053 7.369446 -10.700574 0
M  V30 31 C 8.013022 4.015469 -15.867464 0
M  V30 32 C 10.102294 5.275742 -15.859482 0
M  V30 33 C 11.870686 8.164496 -10.287158 0
M  V30 34 C 7.793397 3.629094 -17.201064 0
M  V30 35 C 10.497495 7.172698 -6.150090 0
M  V30 36 H 11.435081 5.194650 -6.349428 0
M  V30 37 H 12.344292 6.174540 -5.175749 0
M  V30 38 H 9.033370 7.790434 -7.597696 0
M  V30 39 H 8.674929 6.260222 -6.863868 0
M  V30 40 H 8.076611 6.137430 -15.940998 0
M  V30 41 H 10.154564 8.169021 -12.517072 0
M  V30 42 H 13.141060 9.298372 -8.980869 0
M  V30 43 H 8.634820 7.083380 -13.575755 0
M  V30 44 H 12.528482 6.257456 -12.677410 0
M  V30 45 H 11.793757 7.192443 -14.034036 0
M  V30 46 H 11.047143 9.999571 -5.310938 0
M  V30 47 H 12.714540 9.805516 -5.824407 0
M  V30 48 H 11.276938 6.062694 -8.359733 0
M  V30 49 H 4.595813 -0.458598 -15.621624 0
M  V30 50 H 5.985954 -1.506337 -15.690566 0
M  V30 51 H 6.971403 1.435347 -12.937435 0
M  V30 52 H 7.353108 2.642754 -19.603588 0
M  V30 53 H 7.413508 0.957839 -19.071556 0
M  V30 54 H 5.877403 1.832435 -19.062085 0
M  V30 55 H 8.861321 3.312471 -13.050441 0
M  V30 56 H 7.127128 3.741173 -12.813146 0
M  V30 57 H 7.083847 5.957720 -11.789353 0
M  V30 58 H 7.806088 7.503943 -11.709616 0
M  V30 59 H 5.793014 -0.630531 -13.317762 0
M  V30 60 H 8.014231 5.530670 -9.713803 0
M  V30 61 H 10.634915 6.909422 -3.891124 0
M  V30 62 H 9.473174 5.772381 -4.702962 0
M  V30 63 H 10.488800 5.041676 -12.196498 0
M  V30 64 H 12.820858 8.003234 -4.358344 0
M  V30 65 H 10.226289 5.169177 -16.939018 0
M  V30 66 H 10.637943 6.169395 -15.587966 0
M  V30 67 H 10.624440 4.445077 -15.396799 0
M  V30 68 H 12.452886 8.581081 -11.091498 0
M  V30 69 H 8.067737 4.285806 -18.015358 0
M  V30 70 H 7.297377 5.521519 -14.030822 0
M  V30 END ATOM
M  V30 BEGIN BOND
M  V30 1 1 10 1
M  V30 2 1 10 8
M  V30 3 2 11 2
M  V30 4 1 13 9
M  V30 5 1 14 5
M  V30 6 1 14 12
M  V30 7 1 16 4
M  V30 8 1 16 6
M  V30 9 1 16 7
M  V30 10 1 18 1
M  V30 11 2 20 2
M  V30 12 1 20 15
M  V30 13 1 21 8
M  V30 14 1 22 14
M  V30 15 1 22 17
M  V30 16 1 23 12
M  V30 17 1 24 18
M  V30 18 2 24 19
M  V30 19 2 25 6
M  V30 20 1 25 23
M  V30 21 2 26 10
M  V30 22 1 26 17
M  V30 23 1 26 19
M  V30 24 1 27 3
M  V30 25 1 28 9
M  V30 26 1 28 12
M  V30 27 1 28 13
M  V30 28 1 29 15
M  V30 29 1 30 6
M  V30 30 1 30 9
M  V30 31 1 31 5
M  V30 32 2 31 17
M  V30 33 1 32 5
M  V30 34 1 33 11
M  V30 35 2 33 30
M  V30 36 2 34 8
M  V30 37 1 34 31
M  V30 38 1 35 3
M  V30 39 1 35 4
M  V30 40 1 35 20
M  V30 41 1 35 27
M  V30 42 1 36 3
M  V30 43 1 37 3
M  V30 44 1 38 4
M  V30 45 1 39 4
M  V30 46 1 5 40 CFG=3
M  V30 47 1 9 41 CFG=3
M  V30 48 1 42 11
M  V30 49 1 12 43 CFG=3
M  V30 50 1 44 13
M  V30 51 1 45 13
M  V30 52 1 46 15
M  V30 53 1 47 15
M  V30 54 1 16 48 CFG=1
M  V30 55 1 49 18
M  V30 56 1 50 18
M  V30 57 1 51 19
M  V30 58 1 52 21
M  V30 59 1 53 21
M  V30 60 1 54 21
M  V30 61 1 55 22
M  V30 62 1 56 22
M  V30 63 1 57 23
M  V30 64 1 58 23
M  V30 65 1 59 24
M  V30 66 1 60 25
M  V30 67 1 61 27
M  V30 68 1 62 27
M  V30 69 1 28 63 CFG=1
M  V30 70 1 64 29
M  V30 71 1 65 32
M  V30 72 1 66 32
M  V30 73 1 67 32
M  V30 74 1 68 33
M  V30 75 1 69 34
M  V30 76 1 14 70 CFG=3
M  V30 END BOND
M  V30 END CTAB
M  END
>  <i_epik_Tot_Q>  (1) 
1

>  <i_epik_Tot_abs_Q>  (1) 
1

>  <i_i_glide_confnum>  (1) 
6

>  <i_i_glide_lignum>  (1) 
113

>  <i_i_glide_posenum>  (1) 
98

>  <i_i_glide_rotatable_bonds>  (1) 
3

>  <i_lp_mmshare_version>  (1) 
72125

>  <i_m_source_file_index>  (1) 
57

>  <i_f3d_flags>  (1) 
0

>  <num_sample>  (1) 
100

>  <b_lp_Chiralities_Consistent>  (1) 
1

>  <r_epik_Charging_Adjusted_Penalty>  (1) 
0.14231297848205576

>  <r_epik_Ionization_Penalty>  (1) 
0.071157794031890806

>  <r_epik_Ionization_Penalty_Charging>  (1) 
0.071156489241027923

>  <r_epik_Ionization_Penalty_Neutral>  (1) 
1.3047908628845687e-06

>  <r_epik_State_Penalty>  (1) 
0.071156489241027826

>  <r_glide_ring_energy>  (1) 
0

>  <r_i_docking_score>  (1) 
-3.4664824708948285

>  <r_i_glide_ecoul>  (1) 
-1.8968464827403202

>  <r_i_glide_eff_state_penalty>  (1) 
0.071156489241027826

>  <r_i_glide_einternal>  (1) 
2.1821757140380345

>  <r_i_glide_emodel>  (1) 
-17.354032089362061

>  <r_i_glide_emodel_strain>  (1) 
11.65880334589815

>  <r_i_glide_energy>  (1) 
-25.226057229618579

>  <r_i_glide_erotb>  (1) 
0.18105195314905365

>  <r_i_glide_esite>  (1) 
0

>  <r_i_glide_evdw>  (1) 
-23.32921074687826

>  <r_i_glide_gscore>  (1) 
-3.5376389601358564

>  <r_i_glide_gscore_strain>  (1) 
1.9147008364745375

>  <r_i_glide_hbond>  (1) 
0

>  <r_i_glide_ligand_efficiency>  (1) 
-0.099042356311280819

>  <r_i_glide_ligand_efficiency_ln>  (1) 
-0.76096983679473884

>  <r_i_glide_ligand_efficiency_sa>  (1) 
-0.32397411501152495

>  <r_i_glide_lipo>  (1) 
-2.9664829246855269

>  <r_i_glide_metal>  (1) 
-0

>  <r_i_glide_rewards>  (1) 
-1.2159213153189596

>  <r_lp_Energy>  (1) 
56.449574999999996

>  <s_epik_cmdline>  (1) 
J2VwaWtfcHl0aG9uJywgJy1waHQnLCAnMS4wJywgJy1waCcsICc3LjQnLCAnLXRuJywgJzgnLCAnLW1hJywgJzUwMCcsICctaW1hZScsICc8aW5maWxlLm1hZT4nLCAnLW9tYWUnLCAnPG91dGZpbGUubWFlPic=

>  <s_epik_input>  (1) 
TzFbQ0gyXVtDSF09W0NIXWMoYzEyKWMzYyhbY0hdYzJbQ0gzXSlbQ0BIXShbQ0gzXSlOKFtDSDJdMylbQ0BASF0oW0NIMl1bQ0hdNClbQ0BASF0oW0NIMl01KVtDQEhdNUMoXEM9NFtDQEhdKEYpW0NIMl1DNjdbQ0gyXVtDSDJdNyk9W0NIXVxbQ0hdPUM9QzZbQ0gyXVtPSF0=

>  <s_glide_docking_method>  (1) 
confgen

>  <s_i_glide_gridfile>  (1) 
gpcr_drd2_6luq_protein_autoprepared_prepared

>  <s_lp_Force_Field>  (1) 
S-OPLS

>  <s_lp_Variant>  (1) 
DiffSBDD_56_num_sample_100-2

>  <s_m_source_file>  (1) 
generated__ligand_DiffSBDD_2026-05-06_prepared.sdf

>  <GenAI_Model>  (1) 
DiffSBDD

>  <Protein>  (1) 
generic_title2

$$$$
DiffSBDD_12_num_sample_100
     RDKit          3D

  0  0  0  0  0  0  0  0  0  0999 V3000
M  V30 BEGIN CTAB
M  V30 COUNTS 67 71 0 0 1
M  V30 BEGIN ATOM
M  V30 1 C 8.060030 1.126170 -17.413119 0
M  V30 2 C 7.674749 2.463606 -17.789657 0
M  V30 3 F 10.687814 -0.214272 -20.661693 0
M  V30 4 O 9.781508 4.969491 -15.288552 0
M  V30 5 C 9.697831 7.104999 -6.146106 0
M  V30 6 C 7.530622 4.310856 -19.478879 0
M  V30 7 C 7.545913 2.815520 -19.264156 0 CFG=1
M  V30 8 F 9.056312 -1.606267 -20.387588 0
M  V30 9 C 11.527396 7.075102 -8.613253 0
M  V30 10 C 6.177834 6.897498 -16.264183 0
M  V30 11 C 9.362639 -0.348431 -20.705903 0
M  V30 12 C 6.742485 4.347142 -11.632403 0 CFG=1
M  V30 13 C 12.228272 8.429005 -8.512794 0
M  V30 14 C 11.255960 9.334540 -9.230395 0
M  V30 15 C 9.314156 6.595208 -7.549172 0
M  V30 16 C 8.705246 0.621959 -19.736684 0
M  V30 17 C 7.434859 3.399719 -16.846524 0
M  V30 18 C 7.312429 5.163597 -18.467233 0
M  V30 19 O 5.514787 5.015769 -11.820181 0
M  V30 20 O 7.112146 5.234319 -14.827856 0
M  V30 21 C 8.945546 4.747888 -12.552079 0 CFG=1
M  V30 22 C 10.001460 7.300635 -8.753061 0
M  V30 23 C 6.795580 5.658535 -16.098426 0
M  V30 24 F 8.967797 -0.134300 -21.961375 0
M  V30 25 C 8.512485 5.593896 -10.207263 0
M  V30 26 C 9.896244 8.843928 -8.720157 0
M  V30 27 C 6.996485 3.323736 -12.762636 0
M  V30 28 P 8.653570 5.063182 -14.318275 0 CFG=2
M  V30 29 C 7.925822 5.342617 -11.615920 0 CFG=2
M  V30 30 C 9.467365 6.812218 -10.157464 0
M  V30 31 O 5.816432 7.805997 -15.491790 0 CHG=-1
M  V30 32 C 8.531884 0.255737 -18.325668 0
M  V30 33 C 8.266420 1.830818 -20.163725 0
M  V30 34 N 7.142563 4.741972 -17.138735 0
M  V30 35 C 8.402787 3.568139 -13.281111 0 CFG=1
M  V30 36 H 7.989444 0.822536 -16.379524 0
M  V30 37 H 9.434832 6.360024 -5.397174 0
M  V30 38 H 10.761404 7.298988 -6.026460 0
M  V30 39 H 9.169746 8.025816 -5.898515 0
M  V30 40 H 7.670626 4.674749 -20.485699 0
M  V30 41 H 6.507267 2.572831 -19.490188 0
M  V30 42 H 11.800898 6.458761 -7.758517 0
M  V30 43 H 11.895295 6.569301 -9.491551 0
M  V30 44 H 6.016098 6.981453 -17.347722 0
M  V30 45 H 6.686015 3.819903 -10.679286 0
M  V30 46 H 12.330896 8.731988 -7.469397 0
M  V30 47 H 13.220338 8.427438 -8.967317 0
M  V30 48 H 11.443106 10.394263 -9.091703 0
M  V30 49 H 11.358082 9.141996 -10.292944 0
M  V30 50 H 8.235175 6.637347 -7.631309 0
M  V30 51 H 9.564771 5.534588 -7.591525 0
M  V30 52 H 7.490018 3.174049 -15.798912 0
M  V30 53 H 7.286167 6.226019 -18.616352 0
M  V30 54 H 5.464727 5.728584 -11.198417 0
M  V30 55 H 9.990133 4.747539 -12.247990 0
M  V30 56 H 7.669204 5.768419 -9.541822 0
M  V30 57 H 9.015118 4.696334 -9.842423 0
M  V30 58 H 9.063711 9.237396 -9.300526 0
M  V30 59 H 9.738035 9.190093 -7.700969 0
M  V30 60 H 6.918904 2.305789 -12.382108 0
M  V30 61 H 6.271730 3.403603 -13.572749 0
M  V30 62 H 7.601043 6.295296 -12.037134 0
M  V30 63 H 10.291416 6.642977 -10.848268 0
M  V30 64 H 8.933251 7.625888 -10.647800 0
M  V30 65 H 8.825095 -0.730846 -18.001597 0
M  V30 66 H 8.385822 2.114808 -21.198761 0
M  V30 67 H 9.033123 2.702858 -13.448522 0
M  V30 END ATOM
M  V30 BEGIN BOND
M  V30 1 1 2 1
M  V30 2 1 7 2
M  V30 3 1 7 6
M  V30 4 1 11 3
M  V30 5 1 11 8
M  V30 6 1 13 9
M  V30 7 1 14 13
M  V30 8 1 15 5
M  V30 9 1 16 11
M  V30 10 2 17 2
M  V30 11 2 18 6
M  V30 12 1 19 12
M  V30 13 1 22 9
M  V30 14 1 22 15
M  V30 15 2 23 10
M  V30 16 1 23 20
M  V30 17 1 24 11
M  V30 18 1 26 14
M  V30 19 1 26 22
M  V30 20 1 27 12
M  V30 21 2 28 4
M  V30 22 1 28 20 CFG=3
M  V30 23 1 28 21
M  V30 24 1 29 12
M  V30 25 1 29 21
M  V30 26 1 29 25
M  V30 27 1 30 22
M  V30 28 1 30 25
M  V30 29 1 31 10
M  V30 30 2 32 1
M  V30 31 1 32 16
M  V30 32 1 33 7
M  V30 33 2 33 16
M  V30 34 1 34 17
M  V30 35 1 34 18
M  V30 36 1 34 23
M  V30 37 1 35 21
M  V30 38 1 35 27
M  V30 39 1 35 28
M  V30 40 1 36 1
M  V30 41 1 37 5
M  V30 42 1 38 5
M  V30 43 1 39 5
M  V30 44 1 40 6
M  V30 45 1 7 41 CFG=3
M  V30 46 1 42 9
M  V30 47 1 43 9
M  V30 48 1 44 10
M  V30 49 1 12 45 CFG=1
M  V30 50 1 46 13
M  V30 51 1 47 13
M  V30 52 1 48 14
M  V30 53 1 49 14
M  V30 54 1 50 15
M  V30 55 1 51 15
M  V30 56 1 52 17
M  V30 57 1 53 18
M  V30 58 1 54 19
M  V30 59 1 21 55 CFG=1
M  V30 60 1 56 25
M  V30 61 1 57 25
M  V30 62 1 58 26
M  V30 63 1 59 26
M  V30 64 1 60 27
M  V30 65 1 61 27
M  V30 66 1 29 62 CFG=3
M  V30 67 1 63 30
M  V30 68 1 64 30
M  V30 69 1 65 32
M  V30 70 1 66 33
M  V30 71 1 35 67 CFG=3
M  V30 END BOND
M  V30 END CTAB
M  END
>  <i_epik_Tot_Q>  (1) 
-1

>  <i_epik_Tot_abs_Q>  (1) 
1

>  <i_i_glide_confnum>  (1) 
150

>  <i_i_glide_lignum>  (1) 
20

>  <i_i_glide_posenum>  (1) 
284

>  <i_i_glide_rotatable_bonds>  (1) 
9

>  <i_lp_mmshare_version>  (1) 
72125

>  <i_m_source_file_index>  (1) 
13

>  <i_f3d_flags>  (1) 
0

>  <num_sample>  (1) 
100

>  <b_lp_Chiralities_Consistent>  (1) 
1

>  <r_epik_Charging_Adjusted_Penalty>  (1) 
6.0913929175536644e-07

>  <r_epik_Ionization_Penalty>  (1) 
7.5242037030438095e-07

>  <r_epik_Ionization_Penalty_Charging>  (1) 
6.0913929175536644e-07

>  <r_epik_Ionization_Penalty_Neutral>  (1) 
1.4328107854901448e-07

>  <r_epik_State_Penalty>  (1) 
-0

>  <r_glide_ring_energy>  (1) 
0.00028320506983768638

>  <r_i_docking_score>  (1) 
-3.4639332837420582

>  <r_i_glide_ecoul>  (1) 
0.14382335237908539

>  <r_i_glide_eff_state_penalty>  (1) 
-0

>  <r_i_glide_einternal>  (1) 
10.20217189979844

>  <r_i_glide_emodel>  (1) 
-22.719290686809124

>  <r_i_glide_emodel_strain>  (1) 
3.9823654859843032

>  <r_i_glide_energy>  (1) 
-26.566570170125903

>  <r_i_glide_erotb>  (1) 
0.47163652173243925

>  <r_i_glide_esite>  (1) 
0

>  <r_i_glide_evdw>  (1) 
-26.71039352250499

>  <r_i_glide_gscore>  (1) 
-3.4639332837420582

>  <r_i_glide_gscore_strain>  (1) 
0

>  <r_i_glide_hbond>  (1) 
0

>  <r_i_glide_ligand_efficiency>  (1) 
-0.098969522392630238

>  <r_i_glide_ligand_efficiency_ln>  (1) 
-0.7604102336385451

>  <r_i_glide_ligand_efficiency_sa>  (1) 
-0.32373587043398805

>  <r_i_glide_lipo>  (1) 
-1.6879694466321409

>  <r_i_glide_metal>  (1) 
-0

>  <r_i_glide_rewards>  (1) 
-0.93365418557397006

>  <r_lp_Energy>  (1) 
62.944064999999995

>  <r_lp_tautomer_probability>  (1) 
1

>  <s_epik_Chemistry_Notes>  (1) 
This compound has an imine and may undergo hydrolysis.

>  <s_epik_cmdline>  (1) 
J2VwaWtfcHl0aG9uJywgJy1waHQnLCAnMS4wJywgJy1waCcsICc3LjQnLCAnLXRuJywgJzgnLCAnLW1hJywgJzUwMCcsICctaW1hZScsICc8aW5maWxlLm1hZT4nLCAnLW9tYWUnLCAnPG91dGZpbGUubWFlPic=

>  <s_epik_input>  (1) 
W0NIXTE9W0NIXUMoQyhGKShGKUYpPVtDSF1bQ0BASF0oQzE9MilbQ0hdPVtDSF1OKFtDSF0yKVtDQEBIXShbQ0hdPU8pT1tQQF0zKD1PKVtDQEBIXShbQ0BASF0zNClbQ0gyXVtDQEhdKFtPSF0pW0NASF00W0NIMl1bQ0gyXUM1KFtDSDJdW0NIM10pW0NIMl1bQ0gyXVtDSDJdW0NIMl01

>  <s_glide_docking_method>  (1) 
confgen

>  <s_i_glide_gridfile>  (1) 
gpcr_drd2_6luq_protein_autoprepared_prepared

>  <s_lp_Force_Field>  (1) 
S-OPLS

>  <s_lp_Variant>  (1) 
DiffSBDD_12_num_sample_100-1

>  <s_m_source_file>  (1) 
generated__ligand_DiffSBDD_2026-05-06_prepared.sdf

>  <GenAI_Model>  (1) 
DiffSBDD

>  <Protein>  (1) 
generic_title2

$$$$
DiffSBDD_52_num_sample_100
     RDKit          3D

  0  0  0  0  0  0  0  0  0  0999 V3000
M  V30 BEGIN CTAB
M  V30 COUNTS 52 54 0 0 1
M  V30 BEGIN ATOM
M  V30 1 C 13.024976 8.339879 -1.739697 0
M  V30 2 N 7.781718 4.873062 -12.996371 0
M  V30 3 C 11.102206 6.388547 -4.344440 0
M  V30 4 C 7.315033 3.577502 -13.457242 0
M  V30 5 N 12.234839 9.369302 -1.091668 0 CHG=1
M  V30 6 N 11.034836 6.613166 -7.393603 0 CHG=-1
M  V30 7 O 7.805364 4.169303 -10.844463 0
M  V30 8 C 7.034824 3.776178 -14.939807 0 CFG=2
M  V30 9 C 6.746026 5.829122 -16.409843 0
M  V30 10 C 8.144328 5.014586 -11.664835 0
M  V30 11 N 12.062996 8.352257 -8.471095 0
M  V30 12 C 11.823980 6.697022 -3.186984 0
M  V30 13 C 10.882852 7.369838 -5.322017 0
M  V30 14 C 7.412856 2.565575 -15.815212 0
M  V30 15 C 7.623139 5.146669 -15.339147 0
M  V30 16 N 10.958802 8.169301 -10.516589 0
M  V30 17 C 7.617795 5.936763 -14.012870 0
M  V30 18 C 12.131358 8.977194 -3.995431 0
M  V30 19 C 10.512184 7.259584 -9.697128 0
M  V30 20 C 9.434839 6.186404 -10.002636 0
M  V30 21 C 11.194605 7.379689 -8.469483 0
M  V30 22 O 10.152671 7.068961 -6.423005 0
M  V30 23 C 12.323536 7.994315 -3.003078 0
M  V30 24 O 11.934366 8.874072 -9.773446 0
M  V30 25 C 11.408960 8.664783 -5.154970 0
M  V30 26 O 9.467256 6.929769 -12.291666 0 CHG=-1
M  V30 27 N 9.001080 6.089882 -11.347518 0
M  V30 28 O 9.020967 5.444665 -9.102223 0
M  V30 29 C 9.076917 5.024128 -15.847392 0
M  V30 30 H 13.034841 7.466695 -1.091670 0
M  V30 31 H 14.037561 8.694819 -1.891668 0
M  V30 32 H 10.700980 5.399690 -4.480267 0
M  V30 33 H 8.104233 2.839876 -13.299467 0
M  V30 34 H 6.425390 3.246537 -12.919702 0
M  V30 35 H 12.658682 9.603856 -0.207373 0
M  V30 36 H 12.270355 10.197077 -1.667914 0
M  V30 37 H 5.955977 3.891007 -14.981640 0
M  V30 38 H 5.694630 5.844619 -16.120043 0
M  V30 39 H 7.034838 6.865440 -16.570511 0
M  V30 40 H 6.815430 5.311203 -17.366664 0
M  V30 41 H 11.973405 5.942072 -2.428861 0
M  V30 42 H 8.475188 2.329777 -15.757894 0
M  V30 43 H 6.866815 1.677312 -15.496880 0
M  V30 44 H 7.162950 2.748561 -16.860947 0
M  V30 45 H 6.624118 6.348265 -13.833609 0
M  V30 46 H 8.234838 6.807048 -14.151491 0
M  V30 47 H 12.520634 9.972512 -3.856621 0
M  V30 48 H 11.243704 9.417261 -5.912116 0
M  V30 49 H 9.724745 4.569298 -15.097799 0
M  V30 50 H 9.144177 4.433192 -16.760401 0
M  V30 51 H 9.498910 6.001699 -16.074471 0
M  V30 52 H 11.274164 9.077844 -0.953441 0
M  V30 END ATOM
M  V30 BEGIN BOND
M  V30 1 1 4 2
M  V30 2 1 5 1
M  V30 3 1 8 4
M  V30 4 1 10 2
M  V30 5 2 10 7
M  V30 6 2 12 3
M  V30 7 1 13 3
M  V30 8 1 14 8
M  V30 9 1 15 8
M  V30 10 1 15 9
M  V30 11 1 17 2
M  V30 12 1 17 15
M  V30 13 2 19 16
M  V30 14 1 20 19
M  V30 15 1 21 6
M  V30 16 2 21 11
M  V30 17 1 21 19
M  V30 18 1 22 6
M  V30 19 1 22 13
M  V30 20 1 23 1
M  V30 21 1 23 12
M  V30 22 2 23 18
M  V30 23 1 24 11
M  V30 24 1 24 16
M  V30 25 2 25 13
M  V30 26 1 25 18
M  V30 27 1 27 10
M  V30 28 1 27 20
M  V30 29 1 27 26
M  V30 30 2 28 20
M  V30 31 1 29 15
M  V30 32 1 30 1
M  V30 33 1 31 1
M  V30 34 1 32 3
M  V30 35 1 33 4
M  V30 36 1 34 4
M  V30 37 1 35 5
M  V30 38 1 36 5
M  V30 39 1 8 37 CFG=1
M  V30 40 1 38 9
M  V30 41 1 39 9
M  V30 42 1 40 9
M  V30 43 1 41 12
M  V30 44 1 42 14
M  V30 45 1 43 14
M  V30 46 1 44 14
M  V30 47 1 45 17
M  V30 48 1 46 17
M  V30 49 1 47 18
M  V30 50 1 48 25
M  V30 51 1 49 29
M  V30 52 1 50 29
M  V30 53 1 51 29
M  V30 54 1 52 5
M  V30 END BOND
M  V30 END CTAB
M  END
>  <i_epik_Tot_Q>  (1) 
-1

>  <i_epik_Tot_abs_Q>  (1) 
3

>  <i_i_glide_confnum>  (1) 
26

>  <i_i_glide_lignum>  (1) 
97

>  <i_i_glide_posenum>  (1) 
329

>  <i_i_glide_rotatable_bonds>  (1) 
8

>  <i_lp_mmshare_version>  (1) 
72125

>  <i_m_source_file_index>  (1) 
53

>  <i_f3d_flags>  (1) 
0

>  <num_sample>  (1) 
100

>  <b_lp_Chiralities_Consistent>  (1) 
1

>  <r_epik_Charging_Adjusted_Penalty>  (1) 
0.51570556824874214

>  <r_epik_Ionization_Penalty>  (1) 
0.2980209657670958

>  <r_epik_Ionization_Penalty_Charging>  (1) 
0.29800273114257281

>  <r_epik_Ionization_Penalty_Neutral>  (1) 
1.8234624523001942e-05

>  <r_epik_State_Penalty>  (1) 
0.21770283710616928

>  <r_glide_ring_energy>  (1) 
0

>  <r_i_docking_score>  (1) 
-3.4603508656512982

>  <r_i_glide_ecoul>  (1) 
-0.84246149346851595

>  <r_i_glide_eff_state_penalty>  (1) 
0.21770283710616928

>  <r_i_glide_einternal>  (1) 
15.223234564323235

>  <r_i_glide_emodel>  (1) 
-28.868007025534794

>  <r_i_glide_emodel_strain>  (1) 
4.7988055291975371

>  <r_i_glide_energy>  (1) 
-32.385497542826585

>  <r_i_glide_erotb>  (1) 
0.84444989797040115

>  <r_i_glide_esite>  (1) 
-0.12302111592319792

>  <r_i_glide_evdw>  (1) 
-31.543036049358069

>  <r_i_glide_gscore>  (1) 
-3.6780537027574676

>  <r_i_glide_gscore_strain>  (1) 
0.19970138229938428

>  <r_i_glide_hbond>  (1) 
0

>  <r_i_glide_ligand_efficiency>  (1) 
-0.11932244364314822

>  <r_i_glide_ligand_efficiency_ln>  (1) 
-0.7923326013072064

>  <r_i_glide_ligand_efficiency_sa>  (1) 
-0.36659635128679557

>  <r_i_glide_lipo>  (1) 
-2.5776335734799658

>  <r_i_glide_metal>  (1) 
-0

>  <r_i_glide_rewards>  (1) 
-0.31802926713590818

>  <r_lp_Energy>  (1) 
53.846633999999995

>  <s_epik_cmdline>  (1) 
J2VwaWtfcHl0aG9uJywgJy1waHQnLCAnMS4wJywgJy1waCcsICc3LjQnLCAnLXRuJywgJzgnLCAnLW1hJywgJzUwMCcsICctaW1hZScsICc8aW5maWxlLm1hZT4nLCAnLW9tYWUnLCAnPG91dGZpbGUubWFlPic=

>  <s_epik_input>  (1) 
W05IMl1bQ0gyXWMoW2NIXVtjSF0xKVtjSF1bY0hdYzFPL049YzIvW25IXW9uYzJDKD1PKU4oW09IXSlDKD1PKU4oW0NIMl0zKVtDSDJdW0NASF0oW0NIM10pQzMoW0NIM10pW0NIM10=

>  <s_glide_docking_method>  (1) 
confgen

>  <s_i_glide_gridfile>  (1) 
gpcr_drd2_6luq_protein_autoprepared_prepared

>  <s_lp_Force_Field>  (1) 
S-OPLS

>  <s_lp_Variant>  (1) 
DiffSBDD_52_num_sample_100-1

>  <s_m_source_file>  (1) 
generated__ligand_DiffSBDD_2026-05-06_prepared.sdf

>  <GenAI_Model>  (1) 
DiffSBDD

>  <Protein>  (1) 
generic_title2

$$$$
DiffSBDD_80_num_sample_100
     RDKit          3D

  0  0  0  0  0  0  0  0  0  0999 V3000
M  V30 BEGIN CTAB
M  V30 COUNTS 57 60 0 0 1
M  V30 BEGIN ATOM
M  V30 1 C 7.487079 1.114411 -18.092159 0
M  V30 2 C 6.342864 4.681822 -14.923095 0
M  V30 3 O 10.379268 4.560114 -16.500984 0
M  V30 4 C 7.874044 4.525742 -11.330743 0
M  V30 5 C 10.131071 3.961707 -17.545487 0
M  V30 6 C 7.500116 6.405225 -13.485390 0
M  V30 7 C 9.547595 2.544842 -17.538796 0
M  V30 8 C 10.395666 4.598108 -18.903576 0
M  V30 9 C 6.818243 5.224376 -17.195528 0
M  V30 10 C 7.251901 2.939809 -16.268880 0 CFG=2
M  V30 11 C 7.973281 6.853329 -12.136223 0 CFG=1
M  V30 12 O 11.834803 7.758470 -7.638031 0 CHG=-1
M  V30 13 C 9.034891 6.229561 -10.029885 0
M  V30 14 C 7.874566 2.346840 -14.992301 0
M  V30 15 C 8.282719 5.783623 -11.145152 0
M  V30 16 C 10.044453 6.142040 -7.712136 0
M  V30 17 C 7.229733 4.102713 -12.582738 0
M  V30 18 F 11.076090 5.343279 -7.485252 0
M  V30 19 C 7.062942 4.997009 -13.626371 0
M  V30 20 C 7.760609 -0.115064 -17.211604 0
M  V30 21 C 9.235242 5.557589 -8.885457 0
M  V30 22 C 9.575284 7.508700 -10.232124 0
M  V30 23 C 7.994680 2.484815 -17.574069 0 CFG=2
M  V30 24 O 7.434840 7.220635 -14.403483 0
M  V30 25 S 9.251343 8.169306 -11.843389 0
M  V30 26 N 7.222682 4.398115 -16.055314 0
M  V30 27 F 9.290757 6.107227 -6.612972 0
M  V30 28 C 6.783933 2.710630 -12.711611 0
M  V30 29 C 6.993452 1.945345 -13.810299 0
M  V30 30 C 10.276545 8.177534 -9.290226 0
M  V30 31 C 10.549984 7.643349 -7.880601 0 CFG=2
M  V30 32 H 6.412355 1.177183 -18.267548 0
M  V30 33 H 7.927647 0.930225 -19.072665 0
M  V30 34 H 5.648961 3.885262 -14.691692 0
M  V30 35 H 5.687303 5.525808 -15.146298 0
M  V30 36 H 8.101053 3.779303 -10.588301 0
M  V30 37 H 9.940148 2.039547 -18.421722 0
M  V30 38 H 9.953430 1.997079 -16.691654 0
M  V30 39 H 11.303770 4.184343 -19.342086 0
M  V30 40 H 10.520021 5.676688 -18.798987 0
M  V30 41 H 9.564226 4.410478 -19.582036 0
M  V30 42 H 7.533059 5.171673 -18.013905 0
M  V30 43 H 6.790874 6.274181 -16.901079 0
M  V30 44 H 5.834801 4.969276 -17.583240 0
M  V30 45 H 6.234842 2.564964 -16.355278 0
M  V30 46 H 7.071559 7.307647 -11.725402 0
M  V30 47 H 8.441263 1.447839 -15.218337 0
M  V30 48 H 8.634797 3.032469 -14.619229 0
M  V30 49 H 7.470774 -1.028969 -17.731459 0
M  V30 50 H 7.183318 -0.087310 -16.286794 0
M  V30 51 H 8.816527 -0.206773 -16.958248 0
M  V30 52 H 8.809115 4.578400 -8.742722 0
M  V30 53 H 7.685843 3.137533 -18.386644 0
M  V30 54 H 6.234895 2.276168 -11.891609 0
M  V30 55 H 6.603926 0.937151 -13.830380 0
M  V30 56 H 10.663102 9.160040 -9.511933 0
M  V30 57 H 9.846206 8.246096 -7.303283 0
M  V30 END ATOM
M  V30 BEGIN BOND
M  V30 1 2 5 3
M  V30 2 1 7 5
M  V30 3 1 8 5
M  V30 4 1 11 6
M  V30 5 1 14 10
M  V30 6 2 15 4
M  V30 7 1 15 11
M  V30 8 1 15 13
M  V30 9 1 17 4
M  V30 10 1 18 16
M  V30 11 1 19 2
M  V30 12 1 19 6
M  V30 13 2 19 17
M  V30 14 1 20 1
M  V30 15 2 21 13
M  V30 16 1 21 16
M  V30 17 1 22 13
M  V30 18 1 23 1
M  V30 19 1 23 7
M  V30 20 1 23 10
M  V30 21 2 24 6
M  V30 22 1 25 11
M  V30 23 1 25 22
M  V30 24 1 26 2
M  V30 25 1 26 9
M  V30 26 1 26 10
M  V30 27 1 27 16
M  V30 28 1 28 17
M  V30 29 1 29 14
M  V30 30 2 29 28
M  V30 31 2 30 22
M  V30 32 1 31 12
M  V30 33 1 31 16
M  V30 34 1 31 30
M  V30 35 1 32 1
M  V30 36 1 33 1
M  V30 37 1 34 2
M  V30 38 1 35 2
M  V30 39 1 36 4
M  V30 40 1 37 7
M  V30 41 1 38 7
M  V30 42 1 39 8
M  V30 43 1 40 8
M  V30 44 1 41 8
M  V30 45 1 42 9
M  V30 46 1 43 9
M  V30 47 1 44 9
M  V30 48 1 10 45 CFG=3
M  V30 49 1 11 46 CFG=1
M  V30 50 1 47 14
M  V30 51 1 48 14
M  V30 52 1 49 20
M  V30 53 1 50 20
M  V30 54 1 51 20
M  V30 55 1 52 21
M  V30 56 1 23 53 CFG=3
M  V30 57 1 54 28
M  V30 58 1 55 29
M  V30 59 1 56 30
M  V30 60 1 31 57 CFG=1
M  V30 END BOND
M  V30 END CTAB
M  END
>  <i_epik_Tot_Q>  (1) 
-1

>  <i_epik_Tot_abs_Q>  (1) 
1

>  <i_i_glide_confnum>  (1) 
3

>  <i_i_glide_lignum>  (1) 
162

>  <i_i_glide_posenum>  (1) 
32

>  <i_i_glide_rotatable_bonds>  (1) 
4

>  <i_lp_mmshare_version>  (1) 
72125

>  <i_m_source_file_index>  (1) 
81

>  <i_f3d_flags>  (1) 
0

>  <num_sample>  (1) 
100

>  <b_lp_Chiralities_Consistent>  (1) 
1

>  <r_epik_Charging_Adjusted_Penalty>  (1) 
8.7803366933407872e-06

>  <r_epik_Ionization_Penalty>  (1) 
0.00048743314384941063

>  <r_epik_Ionization_Penalty_Charging>  (1) 
8.7803366933407872e-06

>  <r_epik_Ionization_Penalty_Neutral>  (1) 
0.00047865280715606983

>  <r_epik_State_Penalty>  (1) 
-0

>  <r_glide_ring_energy>  (1) 
0

>  <r_i_docking_score>  (1) 
-3.4549120097481065

>  <r_i_glide_ecoul>  (1) 
0.45556765409948979

>  <r_i_glide_eff_state_penalty>  (1) 
-0

>  <r_i_glide_einternal>  (1) 
0.22539621812509125

>  <r_i_glide_emodel>  (1) 
-29.173754150974474

>  <r_i_glide_emodel_strain>  (1) 
0.091011262954623362

>  <r_i_glide_energy>  (1) 
-25.833849562164023

>  <r_i_glide_erotb>  (1) 
0.20077648214602295

>  <r_i_glide_esite>  (1) 
-0.03072473606714551

>  <r_i_glide_evdw>  (1) 
-26.289417216263512

>  <r_i_glide_gscore>  (1) 
-3.4549120097481065

>  <r_i_glide_gscore_strain>  (1) 
0

>  <r_i_glide_hbond>  (1) 
0

>  <r_i_glide_ligand_efficiency>  (1) 
-0.11144877450800343

>  <r_i_glide_ligand_efficiency_ln>  (1) 
-0.77918853853554926

>  <r_i_glide_ligand_efficiency_sa>  (1) 
-0.35010302397217313

>  <r_i_glide_lipo>  (1) 
-1.0723546691984489

>  <r_i_glide_metal>  (1) 
-0

>  <r_i_glide_rewards>  (1) 
-1.3064733739302827

>  <r_lp_Energy>  (1) 
52.707561999999996

>  <r_lp_tautomer_probability>  (1) 
1

>  <s_epik_cmdline>  (1) 
J2VwaWtfcHl0aG9uJywgJy1waHQnLCAnMS4wJywgJy1waCcsICc3LjQnLCAnLXRuJywgJzgnLCAnLW1hJywgJzUwMCcsICctaW1hZScsICc8aW5maWxlLm1hZT4nLCAnLW9tYWUnLCAnPG91dGZpbGUubWFlPic=

>  <s_epik_input>  (1) 
Tz1DKFtDSDNdKVtDSDJdW0NAQEhdKFtDSDJdW0NIM10pW0NAQEhdKFtDSDJdL1tDSF09W0NIXVwxKU4oW0NIM10pW0NIMl1DKEMyPU8pPUMxW0NIXT1DKFtDQEhdMjMpQz00QyhTMyk9W0NIXVtDQEhdKFtPSF0pQyhGKShGKVtDSF00

>  <s_glide_docking_method>  (1) 
confgen

>  <s_i_glide_gridfile>  (1) 
gpcr_drd2_6luq_protein_autoprepared_prepared

>  <s_lp_Force_Field>  (1) 
S-OPLS

>  <s_lp_Variant>  (1) 
DiffSBDD_80_num_sample_100-1

>  <s_m_source_file>  (1) 
generated__ligand_DiffSBDD_2026-05-06_prepared.sdf

>  <GenAI_Model>  (1) 
DiffSBDD

>  <Protein>  (1) 
generic_title2

$$$$
DiffSBDD_6_num_sample_100
     RDKit          3D

  0  0  0  0  0  0  0  0  0  0999 V3000
M  V30 BEGIN CTAB
M  V30 COUNTS 65 68 0 0 1
M  V30 BEGIN ATOM
M  V30 1 N 8.146626 5.225417 -11.258761 0
M  V30 2 N 7.080524 2.678740 -17.899428 0
M  V30 3 C 6.805603 1.304870 -18.142966 0
M  V30 4 C 8.340315 0.422148 -16.273673 0
M  V30 5 C 9.535301 7.087648 -6.885223 0
M  V30 6 N 7.899487 3.766657 -14.814850 0 CFG=2 CHG=1
M  V30 7 C 8.984132 6.123821 -10.553574 0
M  V30 8 F 4.636534 1.545105 -19.093152 0
M  V30 9 C 6.234779 2.308996 -12.517613 0
M  V30 10 C 6.927922 4.715230 -10.648206 0
M  V30 11 C 7.317432 2.564341 -15.438116 0 CFG=1
M  V30 12 F 8.634811 6.169402 -6.545743 0
M  V30 13 C 7.391186 4.418932 -13.556037 0 CFG=2
M  V30 14 C 7.864256 3.123625 -16.748011 0 CFG=2
M  V30 15 C 7.604710 4.472378 -16.069658 0
M  V30 16 F 10.599663 6.923929 -6.096914 0
M  V30 17 C 11.671367 7.607212 -10.091622 0
M  V30 18 C 11.037523 7.369295 -11.238043 0
M  V30 19 C 9.923974 6.965590 -8.347660 0
M  V30 20 C 8.535240 4.527289 -12.509214 0 CFG=1
M  V30 21 F 7.683650 3.923230 -19.718582 0
M  V30 22 C 9.582559 7.208240 -11.368686 0
M  V30 23 C 11.052194 7.633545 -8.766242 0
M  V30 24 C 7.852098 1.200751 -15.042688 0
M  V30 25 C 9.834973 4.942987 -13.170554 0
M  V30 26 F 6.331646 1.440539 -20.475857 0
M  V30 27 C 7.340824 0.281299 -17.419857 0
M  V30 28 C 6.124898 3.799941 -12.905385 0 CFG=2
M  V30 29 C 9.108166 6.067209 -9.211576 0
M  V30 30 C 5.848383 1.028760 -19.302002 0
M  V30 31 C 5.780816 4.650328 -11.667868 0
M  V30 32 C 6.697492 3.734621 -18.841131 0
M  V30 33 F 9.035248 8.300572 -6.653583 0
M  V30 34 H 8.602727 -0.587479 -15.953003 0
M  V30 35 H 9.262764 0.832921 -16.685173 0
M  V30 36 H 7.261227 1.950012 -12.504828 0
M  V30 37 H 5.668254 1.684592 -13.207468 0
M  V30 38 H 5.834875 2.107074 -11.524611 0
M  V30 39 H 7.113975 3.770042 -10.159136 0
M  V30 40 H 6.614430 5.397677 -9.860580 0
M  V30 41 H 6.235112 2.589621 -15.424775 0
M  V30 42 H 7.140677 5.449258 -13.825875 0
M  V30 43 H 8.936322 2.963134 -16.894780 0
M  V30 44 H 6.581598 4.841636 -16.120981 0
M  V30 45 H 8.329124 5.251380 -16.312515 0
M  V30 46 H 12.732624 7.791829 -10.141219 0
M  V30 47 H 11.601544 7.354351 -12.158500 0
M  V30 48 H 8.744952 3.518517 -12.160324 0
M  V30 49 H 9.231007 7.270066 -12.392445 0
M  V30 50 H 9.157907 8.122239 -10.949360 0
M  V30 51 H 11.580172 8.195972 -8.008662 0
M  V30 52 H 7.066273 0.603855 -14.581395 0
M  V30 53 H 8.639942 1.276114 -14.298265 0
M  V30 54 H 10.179362 4.170441 -13.842183 0
M  V30 55 H 9.747202 5.827974 -13.789546 0
M  V30 56 H 10.631943 5.057780 -12.435156 0
M  V30 57 H 7.071780 -0.733320 -17.679924 0
M  V30 58 H 5.292998 3.899813 -13.602729 0
M  V30 59 H 8.549376 5.292866 -8.707530 0
M  V30 60 H 5.692754 -0.045630 -19.409833 0
M  V30 61 H 4.911110 4.245812 -11.168081 0
M  V30 62 H 5.514742 5.665077 -11.968626 0
M  V30 63 H 5.793355 3.516967 -19.406155 0
M  V30 64 H 6.515277 4.692803 -18.357011 0
M  V30 65 H 8.900237 3.656605 -14.748452 0
M  V30 END ATOM
M  V30 BEGIN BOND
M  V30 1 1 3 2
M  V30 2 1 7 1
M  V30 3 1 10 1
M  V30 4 1 11 6
M  V30 5 1 12 5
M  V30 6 1 13 6
M  V30 7 1 14 2
M  V30 8 1 14 11
M  V30 9 1 15 6
M  V30 10 1 15 14
M  V30 11 1 16 5
M  V30 12 2 18 17
M  V30 13 1 19 5
M  V30 14 1 20 1
M  V30 15 1 20 13
M  V30 16 1 22 7
M  V30 17 1 22 18
M  V30 18 1 23 17
M  V30 19 2 23 19
M  V30 20 1 24 4
M  V30 21 1 24 11
M  V30 22 1 25 20
M  V30 23 2 27 3
M  V30 24 1 27 4
M  V30 25 1 28 9
M  V30 26 1 28 13
M  V30 27 2 29 7
M  V30 28 1 29 19
M  V30 29 1 30 3
M  V30 30 1 30 8
M  V30 31 1 30 26
M  V30 32 1 31 10
M  V30 33 1 31 28
M  V30 34 1 32 2
M  V30 35 1 32 21
M  V30 36 1 33 5
M  V30 37 1 34 4
M  V30 38 1 35 4
M  V30 39 1 36 9
M  V30 40 1 37 9
M  V30 41 1 38 9
M  V30 42 1 39 10
M  V30 43 1 40 10
M  V30 44 1 11 41 CFG=3
M  V30 45 1 13 42 CFG=3
M  V30 46 1 14 43 CFG=3
M  V30 47 1 44 15
M  V30 48 1 45 15
M  V30 49 1 46 17
M  V30 50 1 47 18
M  V30 51 1 20 48 CFG=1
M  V30 52 1 49 22
M  V30 53 1 50 22
M  V30 54 1 51 23
M  V30 55 1 52 24
M  V30 56 1 53 24
M  V30 57 1 54 25
M  V30 58 1 55 25
M  V30 59 1 56 25
M  V30 60 1 57 27
M  V30 61 1 28 58 CFG=3
M  V30 62 1 59 29
M  V30 63 1 60 30
M  V30 64 1 61 31
M  V30 65 1 62 31
M  V30 66 1 63 32
M  V30 67 1 64 32
M  V30 68 1 6 65 CFG=1
M  V30 END BOND
M  V30 END CTAB
M  END
>  <i_epik_Tot_Q>  (1) 
1

>  <i_epik_Tot_abs_Q>  (1) 
1

>  <i_i_glide_confnum>  (1) 
48

>  <i_i_glide_lignum>  (1) 
10

>  <i_i_glide_posenum>  (1) 
274

>  <i_i_glide_rotatable_bonds>  (1) 
5

>  <i_lp_mmshare_version>  (1) 
72125

>  <i_m_source_file_index>  (1) 
7

>  <i_f3d_flags>  (1) 
0

>  <num_sample>  (1) 
100

>  <b_lp_Chiralities_Consistent>  (1) 
1

>  <r_epik_Charging_Adjusted_Penalty>  (1) 
2.2946868864184928

>  <r_epik_Ionization_Penalty>  (1) 
1.147343534253078

>  <r_epik_Ionization_Penalty_Charging>  (1) 
1.1473434712357071

>  <r_epik_Ionization_Penalty_Neutral>  (1) 
6.301737089438289e-08

>  <r_epik_State_Penalty>  (1) 
1.1473434151827855

>  <r_glide_ring_energy>  (1) 
0.067460085264317238

>  <r_i_docking_score>  (1) 
-3.4378253540234356

>  <r_i_glide_ecoul>  (1) 
-1.4223657720453804

>  <r_i_glide_eff_state_penalty>  (1) 
1.1473434151827855

>  <r_i_glide_einternal>  (1) 
10.629496715234851

>  <r_i_glide_emodel>  (1) 
-22.489341401714015

>  <r_i_glide_emodel_strain>  (1) 
3.8701094708954429

>  <r_i_glide_energy>  (1) 
-24.890022620111633

>  <r_i_glide_erotb>  (1) 
0.17835229215497114

>  <r_i_glide_esite>  (1) 
-0.15061517487300133

>  <r_i_glide_evdw>  (1) 
-23.467656848066252

>  <r_i_glide_gscore>  (1) 
-4.5851687692062209

>  <r_i_glide_gscore_strain>  (1) 
0

>  <r_i_glide_hbond>  (1) 
0

>  <r_i_glide_ligand_efficiency>  (1) 
-0.10417652587949805

>  <r_i_glide_ligand_efficiency_ln>  (1) 
-0.76455455862777022

>  <r_i_glide_ligand_efficiency_sa>  (1) 
-0.33414978313818866

>  <r_i_glide_lipo>  (1) 
-1.5453099719509829

>  <r_i_glide_metal>  (1) 
-0

>  <r_i_glide_rewards>  (1) 
-1.6808582063270874

>  <r_lp_Energy>  (1) 
64.529619999999994

>  <s_epik_Chemistry_Notes>  (1) 
This compound has an imine and may undergo hydrolysis.

>  <s_epik_cmdline>  (1) 
J2VwaWtfcHl0aG9uJywgJy1waHQnLCAnMS4wJywgJy1waCcsICc3LjQnLCAnLXRuJywgJzgnLCAnLW1hJywgJzUwMCcsICctaW1hZScsICc8aW5maWxlLm1hZT4nLCAnLW9tYWUnLCAnPG91dGZpbGUubWFlPic=

>  <s_epik_input>  (1) 
W0NIMl0xW0NIXT1bQ0hdW0NIXT1DKEMoRikoRilGKVtDSF09QzFOMltDSDJdW0NIMl1bQ0BIXShbQ0gzXSlbQ0BASF0oW0NASF0yW0NIM10pTjNbQ0gyXVtDQEBIXShbQ0BIXTM0KU4oW0NIMl1GKUMoW0NIXShGKUYpPVtDSF1bQ0gyXVtDSDJdNA==

>  <s_glide_docking_method>  (1) 
confgen

>  <s_i_glide_gridfile>  (1) 
gpcr_drd2_6luq_protein_autoprepared_prepared

>  <s_lp_Force_Field>  (1) 
S-OPLS

>  <s_lp_Variant>  (1) 
DiffSBDD_6_num_sample_100-2

>  <s_m_source_file>  (1) 
generated__ligand_DiffSBDD_2026-05-06_prepared.sdf

>  <GenAI_Model>  (1) 
DiffSBDD

>  <Protein>  (1) 
generic_title2

$$$$
DiffSBDD_66_num_sample_100
     RDKit          3D

  0  0  0  0  0  0  0  0  0  0999 V3000
M  V30 BEGIN CTAB
M  V30 COUNTS 88 91 0 0 1
M  V30 BEGIN ATOM
M  V30 1 C 6.963359 2.887165 -15.626544 0
M  V30 2 F 7.610507 -0.527283 -17.990509 0
M  V30 3 C 6.299361 5.458235 -15.413733 0 CFG=1
M  V30 4 N 8.390670 5.572656 -13.229766 0
M  V30 5 C 9.427783 6.388313 -11.154204 0
M  V30 6 F 6.164769 7.769145 -14.799354 0
M  V30 7 O 9.849150 -0.624911 -19.730690 0
M  V30 8 N 8.733283 4.969134 -9.339866 0
M  V30 9 O 5.529493 0.199863 -18.306707 0
M  V30 10 C 7.402427 6.558785 -13.190651 0
M  V30 11 O 9.434830 7.024360 -8.866035 0
M  V30 12 C 6.485043 6.128089 -16.821734 0
M  V30 13 C 9.115270 6.340669 -7.612828 0
M  V30 14 C 6.997768 5.444294 -18.084112 0
M  V30 15 O 11.044134 8.079301 -10.691346 0
M  V30 16 C 9.252977 5.298980 -12.154978 0
M  V30 17 O 7.293193 7.387780 -12.294077 0
M  V30 18 C 10.009843 7.724819 -11.599957 0
M  V30 19 C 8.366007 5.927055 -18.588625 0
M  V30 20 C 9.835530 0.572560 -19.447489 0
M  V30 21 C 8.500196 4.936659 -7.949416 0
M  V30 22 O 10.869309 3.769838 -16.691667 0
M  V30 23 C 6.367188 2.365781 -20.043153 0
M  V30 24 C 13.001229 1.317846 -17.594256 0
M  V30 25 C 6.815629 0.115285 -18.879267 0 CFG=1
M  V30 26 O 9.834839 4.221662 -12.071017 0
M  V30 27 C 7.064210 4.232230 -14.879905 0 CFG=2
M  V30 28 N 10.764337 1.149989 -18.666142 0
M  V30 29 C 5.888989 4.634406 -21.183866 0 CFG=2
M  V30 30 C 9.363866 5.257082 -15.540211 0
M  V30 31 C 9.635178 5.133846 -18.189768 0 CFG=1
M  V30 32 O 4.457843 4.519198 -21.159438 0
M  V30 33 C 10.895466 5.993852 -18.394863 0
M  V30 34 C 6.244300 4.550335 -18.758842 0
M  V30 35 C 7.389053 1.523363 -19.224087 0 CFG=1
M  V30 36 C 8.458577 4.648670 -14.416666 0 CFG=1
M  V30 37 C 6.332697 6.546880 -14.314499 0 CFG=2
M  V30 38 C 9.198701 6.109243 -9.846866 0
M  V30 39 C 11.885822 0.401287 -18.107717 0
M  V30 40 C 5.116124 4.018217 -22.330482 0
M  V30 41 C 6.634948 3.891293 -20.075701 0 CFG=1
M  V30 42 C 9.623928 4.410468 -16.818081 0 CFG=1
M  V30 43 C 8.737006 1.481085 -20.003875 0
M  V30 44 H 6.640590 3.013896 -16.651645 0
M  V30 45 H 7.891040 2.315770 -15.615092 0
M  V30 46 H 6.234911 2.234016 -15.150680 0
M  V30 47 H 5.269870 5.141724 -15.428405 0
M  V30 48 H 8.464704 4.187371 -9.920323 0
M  V30 49 H 5.477268 -0.454626 -17.626221 0
M  V30 50 H 5.501678 6.509359 -17.103178 0
M  V30 51 H 7.033625 7.051503 -16.735764 0
M  V30 52 H 10.040215 6.209421 -7.049208 0
M  V30 53 H 8.452011 6.940656 -6.990622 0
M  V30 54 H 10.701088 7.916564 -9.819863 0
M  V30 55 H 9.267129 8.519503 -11.575550 0
M  V30 56 H 10.406763 7.665068 -12.612399 0
M  V30 57 H 8.336914 6.009015 -19.675072 0
M  V30 58 H 8.486055 6.967050 -18.294077 0
M  V30 59 H 9.033027 4.112147 -7.494531 0
M  V30 60 H 7.435859 4.874876 -7.733350 0
M  V30 61 H 11.166361 3.840087 -15.794243 0
M  V30 62 H 5.346594 2.220441 -19.688022 0
M  V30 63 H 6.375187 1.960218 -21.054238 0
M  V30 64 H 13.840073 0.726115 -17.225775 0
M  V30 65 H 13.377391 1.964774 -18.388304 0
M  V30 66 H 12.665222 1.944970 -16.770451 0
M  V30 67 H 6.743422 -0.487392 -19.785153 0
M  V30 68 H 6.549699 3.977285 -13.950186 0
M  V30 69 H 10.700158 2.137707 -18.457113 0
M  V30 70 H 6.227173 5.659278 -21.329943 0
M  V30 71 H 10.319105 5.565979 -15.111945 0
M  V30 72 H 8.901436 6.169339 -15.862327 0
M  V30 73 H 9.707291 4.337747 -18.930171 0
M  V30 74 H 11.109739 6.569628 -17.499524 0
M  V30 75 H 11.771717 5.374884 -18.589516 0
M  V30 76 H 10.790759 6.681982 -19.234345 0
M  V30 77 H 5.273239 4.289455 -18.373726 0
M  V30 78 H 7.582519 2.027012 -18.282646 0
M  V30 79 H 8.933948 3.718670 -14.130443 0
M  V30 80 H 5.411007 6.404464 -13.748631 0
M  V30 81 H 11.526398 -0.253836 -17.313045 0
M  V30 82 H 12.308011 -0.230593 -18.888477 0
M  V30 83 H 4.965348 4.613954 -23.228850 0
M  V30 84 H 5.035727 2.940541 -22.454966 0
M  V30 85 H 7.688556 4.042920 -20.282156 0
M  V30 86 H 8.895620 3.624786 -16.929476 0
M  V30 87 H 8.542551 1.132809 -21.018707 0
M  V30 88 H 9.156590 2.477732 -20.120496 0
M  V30 END ATOM
M  V30 BEGIN BOND
M  V30 1 1 10 4
M  V30 2 1 12 3
M  V30 3 1 13 11
M  V30 4 1 14 12
M  V30 5 1 16 4
M  V30 6 1 16 5
M  V30 7 2 17 10
M  V30 8 1 18 5
M  V30 9 1 18 15
M  V30 10 1 19 14
M  V30 11 2 20 7
M  V30 12 1 21 8
M  V30 13 1 21 13
M  V30 14 1 25 2
M  V30 15 1 25 9
M  V30 16 2 26 16
M  V30 17 1 27 1
M  V30 18 1 27 3
M  V30 19 1 28 20
M  V30 20 1 31 19
M  V30 21 1 32 29
M  V30 22 1 33 31
M  V30 23 2 34 14
M  V30 24 1 35 23
M  V30 25 1 35 25
M  V30 26 1 36 4
M  V30 27 1 36 27
M  V30 28 1 36 30
M  V30 29 1 37 3
M  V30 30 1 37 6
M  V30 31 1 37 10
M  V30 32 2 38 5
M  V30 33 1 38 8
M  V30 34 1 38 11
M  V30 35 1 39 24
M  V30 36 1 39 28
M  V30 37 1 40 29
M  V30 38 1 40 32
M  V30 39 1 41 23
M  V30 40 1 41 29
M  V30 41 1 41 34
M  V30 42 1 42 22
M  V30 43 1 42 30
M  V30 44 1 42 31
M  V30 45 1 43 20
M  V30 46 1 43 35
M  V30 47 1 44 1
M  V30 48 1 45 1
M  V30 49 1 46 1
M  V30 50 1 3 47 CFG=3
M  V30 51 1 48 8
M  V30 52 1 49 9
M  V30 53 1 50 12
M  V30 54 1 51 12
M  V30 55 1 52 13
M  V30 56 1 53 13
M  V30 57 1 54 15
M  V30 58 1 55 18
M  V30 59 1 56 18
M  V30 60 1 57 19
M  V30 61 1 58 19
M  V30 62 1 59 21
M  V30 63 1 60 21
M  V30 64 1 61 22
M  V30 65 1 62 23
M  V30 66 1 63 23
M  V30 67 1 64 24
M  V30 68 1 65 24
M  V30 69 1 66 24
M  V30 70 1 25 67 CFG=3
M  V30 71 1 27 68 CFG=1
M  V30 72 1 69 28
M  V30 73 1 29 70 CFG=3
M  V30 74 1 71 30
M  V30 75 1 72 30
M  V30 76 1 31 73 CFG=3
M  V30 77 1 74 33
M  V30 78 1 75 33
M  V30 79 1 76 33
M  V30 80 1 77 34
M  V30 81 1 35 78 CFG=1
M  V30 82 1 36 79 CFG=1
M  V30 83 1 37 80 CFG=1
M  V30 84 1 81 39
M  V30 85 1 82 39
M  V30 86 1 83 40
M  V30 87 1 84 40
M  V30 88 1 41 85 CFG=3
M  V30 89 1 42 86 CFG=3
M  V30 90 1 87 43
M  V30 91 1 88 43
M  V30 END BOND
M  V30 END CTAB
M  END
>  <i_epik_Tot_Q>  (1) 
0

>  <i_epik_Tot_abs_Q>  (1) 
0

>  <i_i_glide_confnum>  (1) 
1647

>  <i_i_glide_lignum>  (1) 
129

>  <i_i_glide_posenum>  (1) 
287

>  <i_i_glide_rotatable_bonds>  (1) 
15

>  <i_lp_mmshare_version>  (1) 
72125

>  <i_m_source_file_index>  (1) 
67

>  <i_f3d_flags>  (1) 
0

>  <num_sample>  (1) 
100

>  <b_lp_Chiralities_Consistent>  (1) 
1

>  <r_epik_Charging_Adjusted_Penalty>  (1) 
0.011224841026204068

>  <r_epik_Ionization_Penalty>  (1) 
0.011270599783865109

>  <r_epik_Ionization_Penalty_Charging>  (1) 
8.5422756824624084e-11

>  <r_epik_Ionization_Penalty_Neutral>  (1) 
0.011270599698442352

>  <r_epik_State_Penalty>  (1) 
0.01122484094078131

>  <r_glide_ring_energy>  (1) 
0

>  <r_i_docking_score>  (1) 
-3.434238968645603

>  <r_i_glide_ecoul>  (1) 
-0.8179785069875205

>  <r_i_glide_eff_state_penalty>  (1) 
0.01122484094078131

>  <r_i_glide_einternal>  (1) 
12.582510874507177

>  <r_i_glide_emodel>  (1) 
-23.542558175616463

>  <r_i_glide_emodel_strain>  (1) 
6.0528518393628588

>  <r_i_glide_energy>  (1) 
-31.410334507507194

>  <r_i_glide_erotb>  (1) 
0.43215163049877869

>  <r_i_glide_esite>  (1) 
-0.023589394354022325

>  <r_i_glide_evdw>  (1) 
-30.592356000519676

>  <r_i_glide_gscore>  (1) 
-3.4454638095863843

>  <r_i_glide_gscore_strain>  (1) 
0.51321295984071469

>  <r_i_glide_hbond>  (1) 
-0.033572682853006429

>  <r_i_glide_ligand_efficiency>  (1) 
-0.079866022526641933

>  <r_i_glide_ligand_efficiency_ln>  (1) 
-0.72129691783504013

>  <r_i_glide_ligand_efficiency_sa>  (1) 
-0.27980246841063983

>  <r_i_glide_lipo>  (1) 
-1.8354238221833994

>  <r_i_glide_metal>  (1) 
-0

>  <r_i_glide_rewards>  (1) 
-0.84592792446133735

>  <r_lp_Energy>  (1) 
54.897804999999998

>  <r_lp_tautomer_probability>  (1) 
0.49997499999946832

>  <s_epik_Chemistry_Notes>  (1) 
This compound has an imine and may undergo hydrolysis.

>  <s_epik_cmdline>  (1) 
J2VwaWtfcHl0aG9uJywgJy1waHQnLCAnMS4wJywgJy1waCcsICc3LjQnLCAnLXRuJywgJzgnLCAnLW1hJywgJzUwMCcsICctaW1hZScsICc8aW5maWxlLm1hZT4nLCAnLW9tYWUnLCAnPG91dGZpbGUubWFlPic=

>  <s_epik_input>  (1) 
TzFbQ0gyXVtDSDJdTj1DMVtDQEhdKFtDSDJdW09IXSlDKD1PKU4oQyg9TylbQ0BIXTJGKVtDQEBIXShbQ0BASF0zW0NIM10pW0NIMl1bQ0BIXShbT0hdKVtDQEhdKFtDSDNdKVtDSDJdQyhcW0NIMl1bQ0BIXTIzKT1bQ0hdL1tDQEhdKFtDQEBIXTRPW0NIMl00KVtDSDJdW0NAQEhdKFtDQEBIXShGKVtPSF0pW0NIMl1DKD1PKVtOSF1bQ0gyXVtDSDNd

>  <s_glide_docking_method>  (1) 
confgen

>  <s_i_glide_gridfile>  (1) 
gpcr_drd2_6luq_protein_autoprepared_prepared

>  <s_lp_Force_Field>  (1) 
S-OPLS

>  <s_lp_Variant>  (1) 
DiffSBDD_66_num_sample_100-1

>  <s_m_source_file>  (1) 
generated__ligand_DiffSBDD_2026-05-06_prepared.sdf

>  <GenAI_Model>  (1) 
DiffSBDD

>  <Protein>  (1) 
generic_title2

$$$$
DiffSBDD_11_num_sample_100
     RDKit          3D

  0  0  0  0  0  0  0  0  0  0999 V3000
M  V30 BEGIN CTAB
M  V30 COUNTS 56 58 0 0 1
M  V30 BEGIN ATOM
M  V30 1 C 7.053779 2.474256 -13.898191 0 CFG=1
M  V30 2 C 10.244764 7.310948 -6.832337 0 CFG=1
M  V30 3 N 6.318231 0.257672 -14.749525 0
M  V30 4 C 9.947131 7.220514 -9.574620 0 CFG=1
M  V30 5 O 5.465860 -0.803779 -16.550335 0
M  V30 6 C 7.143783 3.252578 -15.214076 0
M  V30 7 S 11.238747 8.439789 -9.155747 0
M  V30 8 O 11.834882 7.340764 -3.328158 0
M  V30 9 O 10.542370 6.081049 -7.424128 0
M  V30 10 C 10.013725 6.842962 -11.027486 0
M  V30 11 C 7.265782 4.161280 -11.894694 0
M  V30 12 C 12.029792 9.059866 -6.640200 0
M  V30 13 C 10.266877 7.203981 -5.312898 0
M  V30 14 C 9.063828 5.845579 -11.712341 0
M  V30 15 C 9.185090 5.878866 -13.233653 0
M  V30 16 C 6.404024 -0.228999 -16.004736 0
M  V30 17 C 11.213343 8.321804 -7.404648 0
M  V30 18 C 7.401580 0.976583 -14.065978 0
M  V30 19 C 8.122574 5.046779 -11.070432 0
M  V30 20 C 7.728847 -0.047481 -16.753081 0
M  V30 21 Cl 11.035239 10.169249 -4.396479 0
M  V30 22 C 9.996085 5.958195 -8.726302 0 CFG=1
M  V30 23 C 7.960418 3.155492 -12.854216 0
M  V30 24 C 12.086892 8.942388 -5.137010 0 CFG=1
M  V30 25 C 11.644699 7.515828 -4.719100 0 CFG=1
M  V30 26 O 6.039509 4.138808 -11.782066 0
M  V30 27 C 8.639094 5.370535 -8.603966 0
M  V30 28 C 7.848909 4.969341 -9.615867 0
M  V30 29 H 6.016011 2.497676 -13.564233 0
M  V30 30 H 9.225073 7.610081 -7.090132 0
M  V30 31 H 5.454489 0.126922 -14.242126 0
M  V30 32 H 9.034945 7.763760 -9.381620 0
M  V30 33 H 8.178944 3.389797 -15.531345 0
M  V30 34 H 6.686588 4.237887 -15.117353 0
M  V30 35 H 6.634924 2.721254 -16.006747 0
M  V30 36 H 11.405989 8.048637 -2.872928 0
M  V30 37 H 9.865628 7.781121 -11.564181 0
M  V30 38 H 11.034600 6.570014 -11.284159 0
M  V30 39 H 12.705327 9.760776 -7.093426 0
M  V30 40 H 9.564000 7.981751 -5.091750 0
M  V30 41 H 9.857618 6.255568 -4.961901 0
M  V30 42 H 10.189697 5.622526 -13.572923 0
M  V30 43 H 8.964254 6.906067 -13.491627 0
M  V30 44 H 8.446751 5.373376 -13.844673 0
M  V30 45 H 8.388310 0.862262 -14.510507 0
M  V30 46 H 7.481620 0.512915 -13.081369 0
M  V30 47 H 7.993449 1.003455 -16.870775 0
M  V30 48 H 7.647054 -0.478533 -17.750938 0
M  V30 49 H 8.538048 -0.573437 -16.245614 0
M  V30 50 H 10.633761 5.198083 -9.127042 0
M  V30 51 H 8.347015 2.371326 -12.210264 0
M  V30 52 H 8.879689 3.507606 -13.307464 0
M  V30 53 H 13.103744 9.139136 -4.795137 0
M  V30 54 H 12.234645 6.720912 -5.155053 0
M  V30 55 H 8.283959 5.231001 -7.593712 0
M  V30 56 H 6.914867 4.515678 -9.333655 0
M  V30 END ATOM
M  V30 BEGIN BOND
M  V30 1 1 6 1
M  V30 2 1 7 4
M  V30 3 1 9 2
M  V30 4 1 10 4
M  V30 5 1 13 2
M  V30 6 1 14 10
M  V30 7 1 15 14
M  V30 8 1 16 3
M  V30 9 2 16 5
M  V30 10 1 17 2
M  V30 11 1 17 7
M  V30 12 2 17 12
M  V30 13 1 18 1
M  V30 14 1 18 3
M  V30 15 1 19 11
M  V30 16 2 19 14
M  V30 17 1 20 16
M  V30 18 1 22 4
M  V30 19 1 22 9
M  V30 20 1 23 1
M  V30 21 1 23 11
M  V30 22 1 24 12
M  V30 23 1 24 21
M  V30 24 1 25 8
M  V30 25 1 25 13
M  V30 26 1 25 24
M  V30 27 2 26 11
M  V30 28 1 27 22
M  V30 29 1 28 19
M  V30 30 2 28 27
M  V30 31 1 1 29 CFG=1
M  V30 32 1 2 30 CFG=3
M  V30 33 1 31 3
M  V30 34 1 4 32 CFG=3
M  V30 35 1 33 6
M  V30 36 1 34 6
M  V30 37 1 35 6
M  V30 38 1 36 8
M  V30 39 1 37 10
M  V30 40 1 38 10
M  V30 41 1 39 12
M  V30 42 1 40 13
M  V30 43 1 41 13
M  V30 44 1 42 15
M  V30 45 1 43 15
M  V30 46 1 44 15
M  V30 47 1 45 18
M  V30 48 1 46 18
M  V30 49 1 47 20
M  V30 50 1 48 20
M  V30 51 1 49 20
M  V30 52 1 22 50 CFG=3
M  V30 53 1 51 23
M  V30 54 1 52 23
M  V30 55 1 24 53 CFG=1
M  V30 56 1 25 54 CFG=3
M  V30 57 1 55 27
M  V30 58 1 56 28
M  V30 END BOND
M  V30 END CTAB
M  END
>  <i_epik_Tot_Q>  (1) 
0

>  <i_epik_Tot_abs_Q>  (1) 
0

>  <i_i_glide_confnum>  (1) 
302

>  <i_i_glide_lignum>  (1) 
18

>  <i_i_glide_posenum>  (1) 
292

>  <i_i_glide_rotatable_bonds>  (1) 
7

>  <i_lp_mmshare_version>  (1) 
72125

>  <i_m_source_file_index>  (1) 
12

>  <i_f3d_flags>  (1) 
0

>  <num_sample>  (1) 
100

>  <b_lp_Chiralities_Consistent>  (1) 
1

>  <r_epik_Charging_Adjusted_Penalty>  (1) 
0

>  <r_epik_Ionization_Penalty>  (1) 
0.000136015572717869

>  <r_epik_Ionization_Penalty_Charging>  (1) 
0

>  <r_epik_Ionization_Penalty_Neutral>  (1) 
0.000136015572717869

>  <r_epik_State_Penalty>  (1) 
-0

>  <r_glide_ring_energy>  (1) 
0

>  <r_i_docking_score>  (1) 
-3.4217075013995752

>  <r_i_glide_ecoul>  (1) 
-0.95208322503219145

>  <r_i_glide_eff_state_penalty>  (1) 
-0

>  <r_i_glide_einternal>  (1) 
6.7261062467845711

>  <r_i_glide_emodel>  (1) 
-33.12816680864438

>  <r_i_glide_emodel_strain>  (1) 
2.5979938278196357

>  <r_i_glide_energy>  (1) 
-31.824300660815613

>  <r_i_glide_erotb>  (1) 
0.5467392007768872

>  <r_i_glide_esite>  (1) 
0

>  <r_i_glide_evdw>  (1) 
-30.872217435783423

>  <r_i_glide_gscore>  (1) 
-3.4217075013995752

>  <r_i_glide_gscore_strain>  (1) 
0

>  <r_i_glide_hbond>  (1) 
0

>  <r_i_glide_ligand_efficiency>  (1) 
-0.12220383933569912

>  <r_i_glide_ligand_efficiency_ln>  (1) 
-0.78983055702077032

>  <r_i_glide_ligand_efficiency_sa>  (1) 
-0.37108283084764926

>  <r_i_glide_lipo>  (1) 
-2.2255803012215654

>  <r_i_glide_metal>  (1) 
-0

>  <r_i_glide_rewards>  (1) 
-0.056443045410897286

>  <r_lp_Energy>  (1) 
23.239920999999999

>  <r_lp_tautomer_probability>  (1) 
1

>  <s_epik_cmdline>  (1) 
J2VwaWtfcHl0aG9uJywgJy1waHQnLCAnMS4wJywgJy1waCcsICc3LjQnLCAnLXRuJywgJzgnLCAnLW1hJywgJzUwMCcsICctaW1hZScsICc8aW5maWxlLm1hZT4nLCAnLW9tYWUnLCAnPG91dGZpbGUubWFlPic=

>  <s_epik_input>  (1) 
Tz1DKFtDSDNdKVtOSF1bQ0gyXVtDQEhdKFtDSDNdKVtDSDJdQyg9TylDKD1DKFtDSDJdMSlbQ0gzXSlbQ0hdPVtDSF1bQ0BIXShPMilbQ0BIXTFTQyhbQ0BASF0yMyk9W0NIXVtDQEBIXShDbClbQ0BASF0oW09IXSlbQ0gyXTM=

>  <s_glide_docking_method>  (1) 
confgen

>  <s_i_glide_gridfile>  (1) 
gpcr_drd2_6luq_protein_autoprepared_prepared

>  <s_lp_Force_Field>  (1) 
S-OPLS

>  <s_lp_Variant>  (1) 
DiffSBDD_11_num_sample_100-1

>  <s_m_source_file>  (1) 
generated__ligand_DiffSBDD_2026-05-06_prepared.sdf

>  <GenAI_Model>  (1) 
DiffSBDD

>  <Protein>  (1) 
generic_title2

$$$$
DiffSBDD_86_num_sample_100
     RDKit          3D

  0  0  0  0  0  0  0  0  0  0999 V3000
M  V30 BEGIN CTAB
M  V30 COUNTS 53 55 0 0 1
M  V30 BEGIN ATOM
M  V30 1 C 11.476674 1.640282 -18.627420 0
M  V30 2 O 7.203017 3.800091 -15.015930 0
M  V30 3 O 6.984113 5.731432 -11.515744 0
M  V30 4 C 8.983602 5.369296 -9.559162 0
M  V30 5 C 9.231126 6.440604 -11.875849 0 CFG=2
M  V30 6 C 8.359607 2.460710 -16.713560 0 CFG=2
M  V30 7 C 7.552110 3.253370 -13.747345 0
M  V30 8 C 9.819165 6.482523 -7.557007 0
M  V30 9 F 10.906159 8.602210 -7.755164 0
M  V30 10 C 10.279759 7.554388 -8.341943 0
M  V30 11 C 9.427257 3.903904 -18.671194 0
M  V30 12 O 8.785002 4.974787 -18.077334 0
M  V30 13 C 9.258346 2.547307 -17.967725 0 CFG=1
M  V30 14 F 7.157959 2.016779 -17.091245 0
M  V30 15 O 10.455507 6.181693 -12.533188 0
M  V30 16 C 7.499464 6.404664 -13.723623 0
M  V30 17 C 9.172617 5.391254 -8.166228 0
M  V30 18 C 10.846352 2.969305 -20.460330 0
M  V30 19 C 10.140933 4.084641 -19.790123 0
M  V30 20 C 9.435814 6.446595 -10.353264 0
M  V30 21 F 10.540225 8.569260 -10.489489 0
M  V30 22 C 8.024419 5.625342 -12.495071 0 CFG=2
M  V30 23 S 12.973322 1.002743 -18.292373 0
M  V30 24 C 8.204249 3.812533 -16.030056 0 CFG=1
M  V30 25 C 7.759734 4.777821 -17.116926 0
M  V30 26 C 10.090913 7.538377 -9.737787 0
M  V30 27 N 10.585741 2.018669 -17.661034 0
M  V30 28 C 5.848175 4.885905 -11.561814 0
M  V30 29 N 11.052174 1.815508 -19.930618 0
M  V30 30 C 8.461174 4.156864 -12.869989 0
M  V30 31 H 8.487309 4.530250 -10.014491 0
M  V30 32 H 9.023027 7.489072 -12.091684 0
M  V30 33 H 8.723269 1.704165 -16.018665 0
M  V30 34 H 6.622657 3.015846 -13.237840 0
M  V30 35 H 8.039680 2.288183 -13.888517 0
M  V30 36 H 9.961879 6.496226 -6.486802 0
M  V30 37 H 8.811345 1.867285 -18.696453 0
M  V30 38 H 10.308313 6.177555 -13.465979 0
M  V30 39 H 8.234148 6.424681 -14.525699 0
M  V30 40 H 7.261611 7.437273 -13.470154 0
M  V30 41 H 6.583165 5.979528 -14.127755 0
M  V30 42 H 8.820299 4.569047 -7.563767 0
M  V30 43 H 11.199893 3.198961 -21.469054 0
M  V30 44 H 10.214180 5.051985 -20.265247 0
M  V30 45 H 9.157410 4.160361 -15.630053 0
M  V30 46 H 6.848238 4.441348 -17.612965 0
M  V30 47 H 7.529786 5.749669 -16.681359 0
M  V30 48 H 10.852580 1.914888 -16.691913 0
M  V30 49 H 5.127988 5.233629 -10.821559 0
M  V30 50 H 6.112575 3.865979 -11.285981 0
M  V30 51 H 5.354380 4.894082 -12.532492 0
M  V30 52 H 9.411285 4.185024 -13.398554 0
M  V30 53 H 8.687326 3.610079 -11.956059 0
M  V30 END ATOM
M  V30 BEGIN BOND
M  V30 1 1 7 2
M  V30 2 1 10 8
M  V30 3 1 10 9
M  V30 4 1 12 11
M  V30 5 1 13 6
M  V30 6 1 13 11
M  V30 7 1 14 6
M  V30 8 1 15 5
M  V30 9 1 17 4
M  V30 10 2 17 8
M  V30 11 2 19 11
M  V30 12 1 19 18
M  V30 13 2 20 4
M  V30 14 1 20 5
M  V30 15 1 22 3 CFG=1
M  V30 16 1 22 5
M  V30 17 1 22 16
M  V30 18 2 23 1
M  V30 19 1 24 2
M  V30 20 1 24 6
M  V30 21 1 25 12
M  V30 22 1 25 24
M  V30 23 2 26 10
M  V30 24 1 26 20
M  V30 25 1 26 21
M  V30 26 1 27 1
M  V30 27 1 27 13
M  V30 28 1 28 3
M  V30 29 1 29 1
M  V30 30 2 29 18
M  V30 31 1 30 7
M  V30 32 1 30 22
M  V30 33 1 31 4
M  V30 34 1 5 32 CFG=3
M  V30 35 1 6 33 CFG=1
M  V30 36 1 34 7
M  V30 37 1 35 7
M  V30 38 1 36 8
M  V30 39 1 13 37 CFG=3
M  V30 40 1 38 15
M  V30 41 1 39 16
M  V30 42 1 40 16
M  V30 43 1 41 16
M  V30 44 1 42 17
M  V30 45 1 43 18
M  V30 46 1 44 19
M  V30 47 1 24 45 CFG=1
M  V30 48 1 46 25
M  V30 49 1 47 25
M  V30 50 1 48 27
M  V30 51 1 49 28
M  V30 52 1 50 28
M  V30 53 1 51 28
M  V30 54 1 52 30
M  V30 55 1 53 30
M  V30 END BOND
M  V30 END CTAB
M  END
>  <i_epik_Tot_Q>  (1) 
0

>  <i_epik_Tot_abs_Q>  (1) 
0

>  <i_i_glide_confnum>  (1) 
9

>  <i_i_glide_lignum>  (1) 
176

>  <i_i_glide_posenum>  (1) 
245

>  <i_i_glide_rotatable_bonds>  (1) 
8

>  <i_lp_mmshare_version>  (1) 
72125

>  <i_m_source_file_index>  (1) 
87

>  <i_f3d_flags>  (1) 
0

>  <num_sample>  (1) 
100

>  <b_lp_Chiralities_Consistent>  (1) 
1

>  <r_epik_Charging_Adjusted_Penalty>  (1) 
0

>  <r_epik_Ionization_Penalty>  (1) 
0.00043041881029206555

>  <r_epik_Ionization_Penalty_Charging>  (1) 
0

>  <r_epik_Ionization_Penalty_Neutral>  (1) 
0.00043041881029206555

>  <r_epik_State_Penalty>  (1) 
-0

>  <r_glide_ring_energy>  (1) 
0

>  <r_i_docking_score>  (1) 
-3.4200060614678889

>  <r_i_glide_ecoul>  (1) 
-0.62726842297387386

>  <r_i_glide_eff_state_penalty>  (1) 
-0

>  <r_i_glide_einternal>  (1) 
7.6154775665135661

>  <r_i_glide_emodel>  (1) 
-36.043311810224893

>  <r_i_glide_emodel_strain>  (1) 
0.41130266508059776

>  <r_i_glide_energy>  (1) 
-32.776186753830999

>  <r_i_glide_erotb>  (1) 
0.40494693264899051

>  <r_i_glide_esite>  (1) 
-0.016354590302315591

>  <r_i_glide_evdw>  (1) 
-32.148918330857121

>  <r_i_glide_gscore>  (1) 
-3.4200060614678889

>  <r_i_glide_gscore_strain>  (1) 
0

>  <r_i_glide_hbond>  (1) 
0

>  <r_i_glide_ligand_efficiency>  (1) 
-0.11400020204892963

>  <r_i_glide_ligand_efficiency_ln>  (1) 
-0.77706264111615231

>  <r_i_glide_ligand_efficiency_sa>  (1) 
-0.35422513349174189

>  <r_i_glide_lipo>  (1) 
-0.71202938073416011

>  <r_i_glide_metal>  (1) 
-0

>  <r_i_glide_rewards>  (1) 
-1.3950328430914665

>  <r_lp_Energy>  (1) 
48.950238999999996

>  <r_lp_tautomer_probability>  (1) 
1

>  <s_epik_Chemistry_Notes>  (1) 
This compound has an imine and may undergo hydrolysis.

>  <s_epik_cmdline>  (1) 
J2VwaWtfcHl0aG9uJywgJy1waHQnLCAnMS4wJywgJy1waCcsICc3LjQnLCAnLXRuJywgJzgnLCAnLW1hJywgJzUwMCcsICctaW1hZScsICc8aW5maWxlLm1hZT4nLCAnLW9tYWUnLCAnPG91dGZpbGUubWFlPic=

>  <s_epik_input>  (1) 
W0NIXTFbQ0hdPU5DKD1TKVtOSF1bQ0BIXShDPTEyKVtDQEhdKEYpW0NAQEhdKFtDSDJdTzIpT1tDSDJdW0NIMl1bQ0BAXShbQ0gzXSkoT1tDSDNdKVtDQEhdKFtPSF0pYyhjM0YpW2NIXVtjSF1bY0hdYzNG

>  <s_glide_docking_method>  (1) 
confgen

>  <s_i_glide_gridfile>  (1) 
gpcr_drd2_6luq_protein_autoprepared_prepared

>  <s_lp_Force_Field>  (1) 
S-OPLS

>  <s_lp_Variant>  (1) 
DiffSBDD_86_num_sample_100-1

>  <s_m_source_file>  (1) 
generated__ligand_DiffSBDD_2026-05-06_prepared.sdf

>  <GenAI_Model>  (1) 
DiffSBDD

>  <Protein>  (1) 
generic_title2

$$$$
DiffSBDD_84_num_sample_100
     RDKit          3D

  0  0  0  0  0  0  0  0  0  0999 V3000
M  V30 BEGIN CTAB
M  V30 COUNTS 78 81 0 0 1
M  V30 BEGIN ATOM
M  V30 1 O 10.794124 0.241733 -18.104680 0
M  V30 2 C 8.638815 6.364065 -19.940113 0
M  V30 3 C 5.397288 0.476008 -13.255184 0
M  V30 4 C 9.302317 5.050169 -13.597692 0
M  V30 5 O 18.635328 3.762484 -20.110940 0
M  V30 6 C 7.166035 6.552476 -13.910889 0
M  V30 7 P 12.996798 1.048183 -19.994165 0 CFG=1
M  V30 8 O 17.447142 8.273718 -17.839661 0
M  V30 9 C 7.439995 4.304415 -15.104620 0
M  V30 10 C 10.327302 3.762218 -17.874126 0
M  V30 11 O 11.656712 1.827995 -19.498804 0
M  V30 12 C 14.142932 5.241868 -18.421391 0
M  V30 13 C 10.162575 4.809665 -18.969176 0
M  V30 14 O 8.990324 1.968938 -17.102254 0
M  V30 15 C 10.775003 1.367162 -18.607041 0
M  V30 16 O 15.514285 4.010234 -21.234350 0
M  V30 17 C 13.797554 2.403243 -20.977658 0
M  V30 18 C 7.832427 5.187804 -13.963672 0
M  V30 19 C 15.093350 6.130877 -19.219835 0 CFG=2
M  V30 20 C 9.702401 2.402050 -18.251514 0 CFG=2
M  V30 21 O 6.927367 2.001491 -18.094589 0
M  V30 22 C 16.634038 6.071176 -18.881553 0 CFG=1
M  V30 23 C 16.858521 4.133858 -21.693097 0
M  V30 24 C 14.222506 3.895099 -18.316161 0
M  V30 25 S 7.195649 0.567137 -13.187790 0
M  V30 26 C 13.984004 0.810785 -18.427642 0
M  V30 27 C 15.189021 2.831363 -20.502500 0 CFG=2
M  V30 28 C 17.664375 5.961341 -20.010045 0
M  V30 29 C 15.288893 3.008102 -18.965602 0 CFG=2
M  V30 30 C 16.614503 7.524417 -18.345523 0
M  V30 31 C 15.291474 1.614690 -18.303633 0
M  V30 32 C 17.801597 4.543502 -20.560863 0
M  V30 33 O 8.934005 5.345740 -18.999895 0
M  V30 34 C 6.770576 5.486240 -12.923456 0
M  V30 35 C 7.565149 0.524339 -14.966945 0
M  V30 36 O 12.788546 -0.205141 -20.773938 0
M  V30 37 N 7.458275 2.989373 -14.820220 0
M  V30 38 C 7.121358 1.826791 -15.661391 0 CFG=1
M  V30 39 C 7.649673 1.929388 -17.100672 0
M  V30 40 O 11.085301 5.106830 -19.727479 0
M  V30 41 S 14.935500 7.880027 -18.680387 0
M  V30 42 O 7.128052 4.749287 -16.208202 0
M  V30 43 H 7.596746 6.666723 -19.839602 0
M  V30 44 H 9.264617 7.242807 -19.775052 0
M  V30 45 H 8.796980 6.011331 -20.960354 0
M  V30 46 H 5.034860 0.139494 -12.287001 0
M  V30 47 H 4.971295 1.450255 -13.492506 0
M  V30 48 H 5.067791 -0.231143 -14.013904 0
M  V30 49 H 9.622163 5.875283 -12.961105 0
M  V30 50 H 9.474483 4.121796 -13.052032 0
M  V30 51 H 9.927345 5.051212 -14.491745 0
M  V30 52 H 7.759415 7.388647 -13.545726 0
M  V30 53 H 6.432528 6.810224 -14.672878 0
M  V30 54 H 9.846308 4.158345 -16.979128 0
M  V30 55 H 11.378459 3.658431 -17.617217 0
M  V30 56 H 13.338073 5.753680 -17.912808 0
M  V30 57 H 13.126647 3.262497 -20.945489 0
M  V30 58 H 13.841380 2.093723 -22.021997 0
M  V30 59 H 14.872935 6.099335 -20.285945 0
M  V30 60 H 9.049234 2.505320 -19.120668 0
M  V30 61 H 16.844961 5.396012 -18.053154 0
M  V30 62 H 16.889413 4.903811 -22.464082 0
M  V30 63 H 17.199450 3.206842 -22.156323 0
M  V30 64 H 13.483805 3.381379 -17.722869 0
M  V30 65 H 13.341712 1.050806 -17.581057 0
M  V30 66 H 14.202018 -0.252550 -18.332354 0
M  V30 67 H 15.879470 2.041191 -20.802850 0
M  V30 68 H 17.404815 6.627696 -20.834102 0
M  V30 69 H 18.647057 6.277278 -19.658235 0
M  V30 70 H 16.255050 3.425062 -18.715706 0
M  V30 71 H 15.524334 1.714010 -17.242985 0
M  V30 72 H 16.102766 1.018830 -18.727001 0
M  V30 73 H 5.787807 5.033926 -13.048141 0
M  V30 74 H 7.094820 5.606365 -11.891010 0
M  V30 75 H 7.089193 -0.343273 -15.423831 0
M  V30 76 H 8.634865 0.379591 -15.062052 0
M  V30 77 H 7.728887 2.746243 -13.877116 0
M  V30 78 H 6.039751 1.769636 -15.726430 0
M  V30 END ATOM
M  V30 BEGIN BOND
M  V30 1 1 7 11 CFG=1
M  V30 2 1 13 10
M  V30 3 2 15 1
M  V30 4 1 15 11
M  V30 5 1 17 7
M  V30 6 1 18 4
M  V30 7 1 18 6
M  V30 8 1 18 9
M  V30 9 1 19 12
M  V30 10 1 20 10
M  V30 11 1 20 14
M  V30 12 1 20 15
M  V30 13 1 22 19
M  V30 14 1 23 16
M  V30 15 2 24 12
M  V30 16 1 25 3
M  V30 17 1 26 7
M  V30 18 1 27 16
M  V30 19 1 27 17
M  V30 20 1 28 22
M  V30 21 1 29 24
M  V30 22 1 29 27
M  V30 23 2 30 8
M  V30 24 1 30 22
M  V30 25 1 31 26
M  V30 26 1 31 29
M  V30 27 2 32 5
M  V30 28 1 32 23
M  V30 29 1 32 28
M  V30 30 1 33 2
M  V30 31 1 33 13
M  V30 32 1 34 6
M  V30 33 1 34 18
M  V30 34 1 35 25
M  V30 35 2 36 7
M  V30 36 1 37 9
M  V30 37 1 38 35
M  V30 38 1 38 37
M  V30 39 1 39 14
M  V30 40 2 39 21
M  V30 41 1 39 38
M  V30 42 2 40 13
M  V30 43 1 41 19
M  V30 44 1 41 30
M  V30 45 2 42 9
M  V30 46 1 43 2
M  V30 47 1 44 2
M  V30 48 1 45 2
M  V30 49 1 46 3
M  V30 50 1 47 3
M  V30 51 1 48 3
M  V30 52 1 49 4
M  V30 53 1 50 4
M  V30 54 1 51 4
M  V30 55 1 52 6
M  V30 56 1 53 6
M  V30 57 1 54 10
M  V30 58 1 55 10
M  V30 59 1 56 12
M  V30 60 1 57 17
M  V30 61 1 58 17
M  V30 62 1 19 59 CFG=3
M  V30 63 1 20 60 CFG=3
M  V30 64 1 22 61 CFG=1
M  V30 65 1 62 23
M  V30 66 1 63 23
M  V30 67 1 64 24
M  V30 68 1 65 26
M  V30 69 1 66 26
M  V30 70 1 27 67 CFG=3
M  V30 71 1 68 28
M  V30 72 1 69 28
M  V30 73 1 29 70 CFG=3
M  V30 74 1 71 31
M  V30 75 1 72 31
M  V30 76 1 73 34
M  V30 77 1 74 34
M  V30 78 1 75 35
M  V30 79 1 76 35
M  V30 80 1 77 37
M  V30 81 1 38 78 CFG=3
M  V30 END BOND
M  V30 END CTAB
M  END
>  <i_epik_Tot_Q>  (1) 
0

>  <i_epik_Tot_abs_Q>  (1) 
0

>  <i_i_glide_confnum>  (1) 
229

>  <i_i_glide_lignum>  (1) 
173

>  <i_i_glide_posenum>  (1) 
38

>  <i_i_glide_rotatable_bonds>  (1) 
14

>  <i_lp_mmshare_version>  (1) 
72125

>  <i_m_source_file_index>  (1) 
85

>  <i_f3d_flags>  (1) 
0

>  <num_sample>  (1) 
100

>  <b_lp_Chiralities_Consistent>  (1) 
1

>  <r_epik_Charging_Adjusted_Penalty>  (1) 
0

>  <r_epik_Ionization_Penalty>  (1) 
7.2332005044410275e-08

>  <r_epik_Ionization_Penalty_Charging>  (1) 
0

>  <r_epik_Ionization_Penalty_Neutral>  (1) 
7.2332005044410275e-08

>  <r_epik_State_Penalty>  (1) 
-0

>  <r_glide_ring_energy>  (1) 
0

>  <r_i_docking_score>  (1) 
-3.4171843804607414

>  <r_i_glide_ecoul>  (1) 
-0.82463108045766043

>  <r_i_glide_eff_state_penalty>  (1) 
-0

>  <r_i_glide_einternal>  (1) 
13.68856700866804

>  <r_i_glide_emodel>  (1) 
-37.36798873904965

>  <r_i_glide_emodel_strain>  (1) 
1.0410516897056681

>  <r_i_glide_energy>  (1) 
-38.766169393210504

>  <r_i_glide_erotb>  (1) 
0.4114608192218252

>  <r_i_glide_esite>  (1) 
0

>  <r_i_glide_evdw>  (1) 
-37.94153831275284

>  <r_i_glide_gscore>  (1) 
-3.4171843804607414

>  <r_i_glide_gscore_strain>  (1) 
0

>  <r_i_glide_hbond>  (1) 
0

>  <r_i_glide_ligand_efficiency>  (1) 
-0.081361532868112887

>  <r_i_glide_ligand_efficiency_ln>  (1) 
-0.72127958591146191

>  <r_i_glide_ligand_efficiency_sa>  (1) 
-0.2828148561183651

>  <r_i_glide_lipo>  (1) 
-1.1107038666949067

>  <r_i_glide_metal>  (1) 
-0

>  <r_i_glide_rewards>  (1) 
-0.69716975528136882

>  <r_lp_Energy>  (1) 
16.435652999999999

>  <r_lp_tautomer_probability>  (1) 
1

>  <s_epik_Chemistry_Notes>  (1) 
This compound has an ester and may undergo hydrolysis at high or low pH.

>  <s_epik_cmdline>  (1) 
J2VwaWtfcHl0aG9uJywgJy1waHQnLCAnMS4wJywgJy1waCcsICc3LjQnLCAnLXRuJywgJzgnLCAnLW1hJywgJzUwMCcsICctaW1hZScsICc8aW5maWxlLm1hZT4nLCAnLW9tYWUnLCAnPG91dGZpbGUubWFlPic=

>  <s_epik_input>  (1) 
W0NIMl0xW0NIMl1DMShbQ0gzXSlDKD1PKVtOSF1bQ0BIXShbQ0gyXVNbQ0gzXSlDKD1PKU9bQ0BASF0oW0NIMl1DKD1PKU9bQ0gzXSlDKD1PKU9QKD1PKShbQ0gyXTIpW0NIMl1bQ0gyXVtDQEhdKC9bQ0hdPVtDSF1cMylbQ0BASF0yT1tDSDJdQyg9TylbQ0gyXVtDQEhdKFtDQEBIXTM0KUMoPU8pUzQ=

>  <s_glide_docking_method>  (1) 
confgen

>  <s_i_glide_gridfile>  (1) 
gpcr_drd2_6luq_protein_autoprepared_prepared

>  <s_lp_Force_Field>  (1) 
S-OPLS

>  <s_lp_Variant>  (1) 
DiffSBDD_84_num_sample_100-1

>  <s_m_source_file>  (1) 
generated__ligand_DiffSBDD_2026-05-06_prepared.sdf

>  <GenAI_Model>  (1) 
DiffSBDD

>  <Protein>  (1) 
generic_title2

$$$$
DiffSBDD_84_num_sample_100
     RDKit          3D

  0  0  0  0  0  0  0  0  0  0999 V3000
M  V30 BEGIN CTAB
M  V30 COUNTS 78 81 0 0 1
M  V30 BEGIN ATOM
M  V30 1 O 10.500359 -0.517001 -17.880076 0
M  V30 2 C 9.936684 5.771477 -20.340318 0
M  V30 3 C 5.515378 0.017131 -12.187930 0
M  V30 4 C 9.020905 3.822738 -12.216370 0
M  V30 5 O 18.263340 5.188163 -19.091505 0
M  V30 6 C 8.971048 5.068392 -14.561058 0
M  V30 7 P 12.672243 0.838486 -19.530508 0 CFG=1
M  V30 8 O 15.185160 8.875331 -17.901101 0
M  V30 9 C 7.229427 3.299475 -13.878263 0
M  V30 10 C 9.350076 2.870855 -18.071600 0
M  V30 11 O 11.079803 1.110362 -19.361966 0
M  V30 12 C 13.464825 4.811677 -17.339597 0
M  V30 13 C 9.393294 3.658000 -19.381422 0
M  V30 14 O 8.456137 0.976610 -16.962973 0
M  V30 15 C 10.274948 0.541986 -18.467005 0
M  V30 16 O 15.214823 3.882683 -20.271705 0
M  V30 17 C 13.214009 2.522637 -20.054736 0
M  V30 18 C 8.285160 4.271140 -13.468119 0
M  V30 19 C 13.866333 5.722177 -18.487137 0 CFG=2
M  V30 20 C 9.004841 1.363025 -18.214779 0 CFG=2
M  V30 21 O 6.262394 1.201597 -17.585335 0
M  V30 22 C 15.304712 6.353549 -18.373786 0 CFG=1
M  V30 23 C 16.636461 3.893996 -20.296747 0
M  V30 24 C 13.873090 3.534133 -17.159818 0
M  V30 25 S 7.222483 0.169393 -12.691898 0
M  V30 26 C 13.354773 0.635867 -17.802785 0
M  V30 27 C 14.657983 2.753502 -19.619084 0 CFG=2
M  V30 28 C 16.231491 6.369626 -19.588026 0
M  V30 29 C 14.833578 2.735789 -18.069703 0 CFG=2
M  V30 30 C 14.714177 7.765797 -18.141226 0
M  V30 31 C 14.757977 1.255416 -17.619105 0
M  V30 32 C 17.152625 5.154986 -19.610952 0
M  V30 33 O 9.832346 4.914617 -19.216686 0
M  V30 34 C 7.961076 5.738254 -13.663694 0
M  V30 35 C 7.187392 -0.121422 -14.478912 0
M  V30 36 O 13.071149 -0.230625 -20.486525 0
M  V30 37 N 7.660965 2.324783 -14.694581 0
M  V30 38 C 6.885446 1.195402 -15.221026 0 CFG=1
M  V30 39 C 7.136768 1.100733 -16.725759 0
M  V30 40 O 9.057358 3.159717 -20.456171 0
M  V30 41 S 13.026563 7.349485 -18.334845 0
M  V30 42 O 6.064421 3.383993 -13.491718 0
M  V30 43 H 10.251280 6.765407 -20.021316 0
M  V30 44 H 10.673346 5.391922 -21.049156 0
M  V30 45 H 8.976478 5.866137 -20.849638 0
M  V30 46 H 5.434843 0.570595 -11.256481 0
M  V30 47 H 4.844564 0.423018 -12.945261 0
M  V30 48 H 5.264552 -1.016266 -11.968665 0
M  V30 49 H 9.873222 4.472915 -12.022084 0
M  V30 50 H 8.356354 3.865456 -11.353086 0
M  V30 51 H 9.391832 2.801849 -12.317534 0
M  V30 52 H 10.022387 5.307684 -14.417438 0
M  V30 53 H 8.677551 4.900543 -15.595458 0
M  V30 54 H 8.598071 3.361733 -17.454107 0
M  V30 55 H 10.298171 3.003348 -17.548419 0
M  V30 56 H 12.791447 5.243616 -16.612171 0
M  V30 57 H 12.534559 3.266669 -19.641903 0
M  V30 58 H 13.130332 2.583407 -21.139739 0
M  V30 59 H 13.602418 5.329180 -19.464256 0
M  V30 60 H 8.300172 1.177988 -19.027190 0
M  V30 61 H 15.809444 6.009366 -17.469288 0
M  V30 62 H 16.972800 3.889855 -21.333093 0
M  V30 63 H 17.071020 3.016853 -19.815151 0
M  V30 64 H 13.509765 3.005743 -16.291125 0
M  V30 65 H 12.655931 1.071476 -17.089962 0
M  V30 66 H 13.392465 -0.430141 -17.576798 0
M  V30 67 H 15.207215 1.906144 -20.034476 0
M  V30 68 H 15.658357 6.395206 -20.515371 0
M  V30 69 H 16.855761 7.263767 -19.587963 0
M  V30 70 H 15.834644 3.084998 -17.824062 0
M  V30 71 H 15.049160 1.172538 -16.570460 0
M  V30 72 H 15.487014 0.656329 -18.166512 0
M  V30 73 H 6.997986 5.999031 -14.099233 0
M  V30 74 H 8.327483 6.432663 -12.910475 0
M  V30 75 H 6.446877 -0.886321 -14.718374 0
M  V30 76 H 8.165986 -0.510947 -14.764324 0
M  V30 77 H 8.635011 2.341285 -14.951793 0
M  V30 78 H 5.834682 1.386802 -15.064593 0
M  V30 END ATOM
M  V30 BEGIN BOND
M  V30 1 1 7 11 CFG=1
M  V30 2 1 13 10
M  V30 3 2 15 1
M  V30 4 1 15 11
M  V30 5 1 17 7
M  V30 6 1 18 4
M  V30 7 1 18 6
M  V30 8 1 18 9
M  V30 9 1 19 12
M  V30 10 1 20 10
M  V30 11 1 20 14
M  V30 12 1 20 15
M  V30 13 1 22 19
M  V30 14 1 23 16
M  V30 15 2 24 12
M  V30 16 1 25 3
M  V30 17 1 26 7
M  V30 18 1 27 16
M  V30 19 1 27 17
M  V30 20 1 28 22
M  V30 21 1 29 24
M  V30 22 1 29 27
M  V30 23 2 30 8
M  V30 24 1 30 22
M  V30 25 1 31 26
M  V30 26 1 31 29
M  V30 27 2 32 5
M  V30 28 1 32 23
M  V30 29 1 32 28
M  V30 30 1 33 2
M  V30 31 1 33 13
M  V30 32 1 34 6
M  V30 33 1 34 18
M  V30 34 1 35 25
M  V30 35 2 36 7
M  V30 36 1 37 9
M  V30 37 1 38 35
M  V30 38 1 38 37
M  V30 39 1 39 14
M  V30 40 2 39 21
M  V30 41 1 39 38
M  V30 42 2 40 13
M  V30 43 1 41 19
M  V30 44 1 41 30
M  V30 45 2 42 9
M  V30 46 1 43 2
M  V30 47 1 44 2
M  V30 48 1 45 2
M  V30 49 1 46 3
M  V30 50 1 47 3
M  V30 51 1 48 3
M  V30 52 1 49 4
M  V30 53 1 50 4
M  V30 54 1 51 4
M  V30 55 1 52 6
M  V30 56 1 53 6
M  V30 57 1 54 10
M  V30 58 1 55 10
M  V30 59 1 56 12
M  V30 60 1 57 17
M  V30 61 1 58 17
M  V30 62 1 19 59 CFG=3
M  V30 63 1 20 60 CFG=3
M  V30 64 1 22 61 CFG=1
M  V30 65 1 62 23
M  V30 66 1 63 23
M  V30 67 1 64 24
M  V30 68 1 65 26
M  V30 69 1 66 26
M  V30 70 1 27 67 CFG=3
M  V30 71 1 68 28
M  V30 72 1 69 28
M  V30 73 1 29 70 CFG=3
M  V30 74 1 71 31
M  V30 75 1 72 31
M  V30 76 1 73 34
M  V30 77 1 74 34
M  V30 78 1 75 35
M  V30 79 1 76 35
M  V30 80 1 77 37
M  V30 81 1 38 78 CFG=3
M  V30 END BOND
M  V30 END CTAB
M  END
>  <i_epik_Tot_Q>  (1) 
0

>  <i_epik_Tot_abs_Q>  (1) 
0

>  <i_i_glide_confnum>  (1) 
229

>  <i_i_glide_lignum>  (1) 
173

>  <i_i_glide_posenum>  (1) 
38

>  <i_i_glide_rotatable_bonds>  (1) 
14

>  <i_lp_mmshare_version>  (1) 
72125

>  <i_m_source_file_index>  (1) 
85

>  <i_f3d_flags>  (1) 
0

>  <num_sample>  (1) 
100

>  <b_lp_Chiralities_Consistent>  (1) 
1

>  <r_epik_Charging_Adjusted_Penalty>  (1) 
0

>  <r_epik_Ionization_Penalty>  (1) 
7.2332005044410275e-08

>  <r_epik_Ionization_Penalty_Charging>  (1) 
0

>  <r_epik_Ionization_Penalty_Neutral>  (1) 
7.2332005044410275e-08

>  <r_epik_State_Penalty>  (1) 
-0

>  <r_glide_ring_energy>  (1) 
0

>  <r_i_docking_score>  (1) 
-3.4069374257350304

>  <r_i_glide_ecoul>  (1) 
-0.81652512220677809

>  <r_i_glide_eff_state_penalty>  (1) 
-0

>  <r_i_glide_einternal>  (1) 
15.618511251749505

>  <r_i_glide_emodel>  (1) 
-34.012879514706768

>  <r_i_glide_emodel_strain>  (1) 
2.3385802913986993

>  <r_i_glide_energy>  (1) 
-37.693013626126778

>  <r_i_glide_erotb>  (1) 
0.4114608192218252

>  <r_i_glide_esite>  (1) 
-0.0014818693428993428

>  <r_i_glide_evdw>  (1) 
-36.876488503920001

>  <r_i_glide_gscore>  (1) 
-3.4069374257350304

>  <r_i_glide_gscore_strain>  (1) 
0

>  <r_i_glide_hbond>  (1) 
0

>  <r_i_glide_ligand_efficiency>  (1) 
-0.081117557755595968

>  <r_i_glide_ligand_efficiency_ln>  (1) 
-0.71911671776080688

>  <r_i_glide_ligand_efficiency_sa>  (1) 
-0.28196679212656711

>  <r_i_glide_lipo>  (1) 
-1.2467526574572567

>  <r_i_glide_metal>  (1) 
-0

>  <r_i_glide_rewards>  (1) 
-0.60386052462968276

>  <r_lp_Energy>  (1) 
16.435652999999999

>  <r_lp_tautomer_probability>  (1) 
1

>  <s_epik_Chemistry_Notes>  (1) 
This compound has an ester and may undergo hydrolysis at high or low pH.

>  <s_epik_cmdline>  (1) 
J2VwaWtfcHl0aG9uJywgJy1waHQnLCAnMS4wJywgJy1waCcsICc3LjQnLCAnLXRuJywgJzgnLCAnLW1hJywgJzUwMCcsICctaW1hZScsICc8aW5maWxlLm1hZT4nLCAnLW9tYWUnLCAnPG91dGZpbGUubWFlPic=

>  <s_epik_input>  (1) 
W0NIMl0xW0NIMl1DMShbQ0gzXSlDKD1PKVtOSF1bQ0BIXShbQ0gyXVNbQ0gzXSlDKD1PKU9bQ0BASF0oW0NIMl1DKD1PKU9bQ0gzXSlDKD1PKU9QKD1PKShbQ0gyXTIpW0NIMl1bQ0gyXVtDQEhdKC9bQ0hdPVtDSF1cMylbQ0BASF0yT1tDSDJdQyg9TylbQ0gyXVtDQEhdKFtDQEBIXTM0KUMoPU8pUzQ=

>  <s_glide_docking_method>  (1) 
confgen

>  <s_i_glide_gridfile>  (1) 
gpcr_drd2_6luq_protein_autoprepared_prepared

>  <s_lp_Force_Field>  (1) 
S-OPLS

>  <s_lp_Variant>  (1) 
DiffSBDD_84_num_sample_100-1

>  <s_m_source_file>  (1) 
generated__ligand_DiffSBDD_2026-05-06_prepared.sdf

>  <GenAI_Model>  (1) 
DiffSBDD

>  <Protein>  (1) 
generic_title2

$$$$
DiffSBDD_49_num_sample_100
     RDKit          3D

  0  0  0  0  0  0  0  0  0  0999 V3000
M  V30 BEGIN CTAB
M  V30 COUNTS 53 56 0 0 1
M  V30 BEGIN ATOM
M  V30 1 N 8.583784 4.558592 -16.446118 0
M  V30 2 C 12.639294 5.592479 -17.534565 0
M  V30 3 C 12.884708 3.194004 -17.909782 0
M  V30 4 C 5.325860 7.004278 -17.301885 0
M  V30 5 C 7.781591 5.846775 -11.091328 0
M  V30 6 S 8.351485 4.826689 -19.091074 0
M  V30 7 C 11.238958 5.447320 -17.515902 0
M  V30 8 C 7.872464 4.801594 -13.418356 0 CFG=1
M  V30 9 C 9.144528 4.012112 -17.665113 0 CFG=1
M  V30 10 C 6.314471 6.582475 -18.394469 0
M  V30 11 C 7.386247 6.030902 -14.237199 0
M  V30 12 C 7.479055 5.125065 -16.668138 0
M  V30 13 C 9.318063 5.808580 -10.952325 0 CFG=2
M  V30 14 O 9.434799 6.837702 -8.746186 0
M  V30 15 C 6.616939 5.757586 -15.554798 0 CFG=2
M  V30 16 C 9.858996 6.962525 -10.083569 0
M  V30 17 C 10.657406 4.173134 -17.693945 0
M  V30 18 C 9.411585 4.757198 -13.272653 0
M  V30 19 C 13.461932 4.466340 -17.731034 0
M  V30 20 C 6.925147 5.209713 -18.068088 0 CFG=2
M  V30 21 C 7.241605 4.740581 -12.013807 0
M  V30 22 N 6.024269 7.047378 -16.000633 0 CHG=1
M  V30 23 C 9.954132 5.860672 -12.350059 0
M  V30 24 C 11.484133 3.046277 -17.891780 0
M  V30 25 H 5.798744 5.071568 -15.338234 0
M  V30 26 H 13.082554 6.567878 -17.397096 0
M  V30 27 H 13.516312 2.330899 -18.059728 0
M  V30 28 H 4.916388 7.990654 -17.522042 0
M  V30 29 H 4.484763 6.310876 -17.246629 0
M  V30 30 H 7.316346 5.750906 -10.110345 0
M  V30 31 H 7.479768 6.820108 -11.480727 0
M  V30 32 H 10.610568 6.310681 -17.362814 0
M  V30 33 H 7.564225 3.897164 -13.944303 0
M  V30 34 H 8.900893 2.949157 -17.711978 0
M  V30 35 H 7.096131 7.339489 -18.493199 0
M  V30 36 H 5.810350 6.542806 -19.360731 0
M  V30 37 H 6.742572 6.639929 -13.601811 0
M  V30 38 H 8.233959 6.672804 -14.465907 0
M  V30 39 H 9.596966 4.862968 -10.484198 0
M  V30 40 H 8.500743 7.045693 -8.729187 0
M  V30 41 H 9.529146 7.928573 -10.468517 0
M  V30 42 H 10.949101 6.969585 -10.093431 0
M  V30 43 H 9.710857 3.787813 -12.871316 0
M  V30 44 H 9.896000 4.836834 -14.243980 0
M  V30 45 H 14.535623 4.578391 -17.744299 0
M  V30 46 H 7.458306 3.772344 -11.562794 0
M  V30 47 H 6.155067 4.805901 -12.080583 0
M  V30 48 H 9.764936 6.843319 -12.776175 0
M  V30 49 H 11.037982 5.769795 -12.291729 0
M  V30 50 H 11.044597 2.068862 -18.026902 0
M  V30 51 H 5.379066 7.366587 -15.291545 0
M  V30 52 H 6.186861 4.419027 -18.198514 0
M  V30 53 H 6.771883 7.723531 -16.069023 0
M  V30 END ATOM
M  V30 BEGIN BOND
M  V30 1 1 7 2
M  V30 2 1 9 1
M  V30 3 1 9 6
M  V30 4 1 10 4
M  V30 5 1 11 8
M  V30 6 2 12 1
M  V30 7 1 13 5
M  V30 8 1 15 11
M  V30 9 1 15 12
M  V30 10 1 16 13
M  V30 11 1 16 14
M  V30 12 2 17 7
M  V30 13 1 17 9
M  V30 14 1 18 8
M  V30 15 2 19 2
M  V30 16 1 19 3
M  V30 17 1 20 6
M  V30 18 1 20 10
M  V30 19 1 20 12
M  V30 20 1 21 5
M  V30 21 1 21 8
M  V30 22 1 22 4
M  V30 23 1 22 15
M  V30 24 1 23 13
M  V30 25 1 23 18
M  V30 26 2 24 3
M  V30 27 1 24 17
M  V30 28 1 15 25 CFG=1
M  V30 29 1 26 2
M  V30 30 1 27 3
M  V30 31 1 28 4
M  V30 32 1 29 4
M  V30 33 1 30 5
M  V30 34 1 31 5
M  V30 35 1 32 7
M  V30 36 1 8 33 CFG=3
M  V30 37 1 9 34 CFG=3
M  V30 38 1 35 10
M  V30 39 1 36 10
M  V30 40 1 37 11
M  V30 41 1 38 11
M  V30 42 1 13 39 CFG=1
M  V30 43 1 40 14
M  V30 44 1 41 16
M  V30 45 1 42 16
M  V30 46 1 43 18
M  V30 47 1 44 18
M  V30 48 1 45 19
M  V30 49 1 46 21
M  V30 50 1 47 21
M  V30 51 1 48 23
M  V30 52 1 49 23
M  V30 53 1 50 24
M  V30 54 1 51 22
M  V30 55 1 20 52 CFG=1
M  V30 56 1 53 22
M  V30 END BOND
M  V30 END CTAB
M  END
>  <i_epik_Tot_Q>  (1) 
1

>  <i_epik_Tot_abs_Q>  (1) 
1

>  <i_i_glide_confnum>  (1) 
34

>  <i_i_glide_lignum>  (1) 
93

>  <i_i_glide_posenum>  (1) 
101

>  <i_i_glide_rotatable_bonds>  (1) 
5

>  <i_lp_mmshare_version>  (1) 
72125

>  <i_m_source_file_index>  (1) 
50

>  <i_f3d_flags>  (1) 
0

>  <num_sample>  (1) 
100

>  <b_lp_Chiralities_Consistent>  (1) 
1

>  <r_epik_Charging_Adjusted_Penalty>  (1) 
1.8117775797116225

>  <r_epik_Ionization_Penalty>  (1) 
0.90588925903239437

>  <r_epik_Ionization_Penalty_Charging>  (1) 
0.90588878985581123

>  <r_epik_Ionization_Penalty_Neutral>  (1) 
4.6917658313918283e-07

>  <r_epik_State_Penalty>  (1) 
0.90588878985581134

>  <r_glide_ring_energy>  (1) 
0.011149821634754045

>  <r_i_docking_score>  (1) 
-3.4052987185132078

>  <r_i_glide_ecoul>  (1) 
-2.6176215415506237

>  <r_i_glide_eff_state_penalty>  (1) 
0.90588878985581134

>  <r_i_glide_einternal>  (1) 
1.6527249040498386

>  <r_i_glide_emodel>  (1) 
-30.843909495786164

>  <r_i_glide_emodel_strain>  (1) 
0.22777320327482897

>  <r_i_glide_energy>  (1) 
-25.572083527766672

>  <r_i_glide_erotb>  (1) 
0.63659216225735071

>  <r_i_glide_esite>  (1) 
0

>  <r_i_glide_evdw>  (1) 
-22.954461986216049

>  <r_i_glide_gscore>  (1) 
-4.3111875083690192

>  <r_i_glide_gscore_strain>  (1) 
0

>  <r_i_glide_hbond>  (1) 
-0.16

>  <r_i_glide_ligand_efficiency>  (1) 
-0.141887446604717

>  <r_i_glide_ligand_efficiency_ln>  (1) 
-0.81504424231643202

>  <r_i_glide_ligand_efficiency_sa>  (1) 
-0.40927421779533685

>  <r_i_glide_lipo>  (1) 
-1.5162058390985265

>  <r_i_glide_metal>  (1) 
-0

>  <r_i_glide_rewards>  (1) 
-1.7312075009844472

>  <r_lp_Energy>  (1) 
30.244025999999998

>  <r_lp_tautomer_probability>  (1) 
0.99998600000000004

>  <s_epik_Chemistry_Notes>  (1) 
This compound has an imine and may undergo hydrolysis. This compound contains an acetal/aminal-like group ( X-CH(R)-Y where X, Y are N, S, or O) that may be acid/base labile, releasing an aldehyde.

>  <s_epik_cmdline>  (1) 
J2VwaWtfcHl0aG9uJywgJy1waHQnLCAnMS4wJywgJy1waCcsICc3LjQnLCAnLXRuJywgJzgnLCAnLW1hJywgJzUwMCcsICctaW1hZScsICc8aW5maWxlLm1hZT4nLCAnLW9tYWUnLCAnPG91dGZpbGUubWFlPic=

>  <s_epik_input>  (1) 
W2NIXTFbY0hdW2NIXVtjSF1bY0hdYzFbQ0BASF0oW05IXTIpU1tDQEBIXShbQ0BIXTIzKVtDSDJdW0NIMl1OPUMzW0NIMl1bQ0BIXTRbQ0gyXVtDSDJdW0NASF0oW0NIMl1bQ0gyXTQpW0NIMl1bT0hd

>  <s_glide_docking_method>  (1) 
confgen

>  <s_i_glide_gridfile>  (1) 
gpcr_drd2_6luq_protein_autoprepared_prepared

>  <s_lp_Force_Field>  (1) 
S-OPLS

>  <s_lp_Variant>  (1) 
DiffSBDD_49_num_sample_100-3

>  <s_m_source_file>  (1) 
generated__ligand_DiffSBDD_2026-05-06_prepared.sdf

>  <GenAI_Model>  (1) 
DiffSBDD

>  <Protein>  (1) 
generic_title2

$$$$
DiffSBDD_25_num_sample_100
     RDKit          3D

  0  0  0  0  0  0  0  0  0  0999 V3000
M  V30 BEGIN CTAB
M  V30 COUNTS 65 68 0 0 1
M  V30 BEGIN ATOM
M  V30 1 C 10.494775 7.101189 -6.307004 0
M  V30 2 C 5.123386 7.266156 -18.934124 0
M  V30 3 C 5.991266 7.308612 -16.529707 0
M  V30 4 C 8.256216 6.254696 -12.500223 0 CFG=2
M  V30 5 C 6.674384 3.235618 -20.129182 0
M  V30 6 O 7.439655 5.352394 -20.588486 0
M  V30 7 C 7.869926 5.133725 -19.254942 0 CFG=1
M  V30 8 C 6.335477 4.514548 -20.894807 0 CFG=2
M  V30 9 F 3.876398 7.184311 -18.467081 0
M  V30 10 C 5.003071 5.177983 -20.478740 0
M  V30 11 C 8.146229 4.969306 -8.903420 0
M  V30 12 C 7.526124 6.332389 -18.332687 0
M  V30 13 F 5.434840 8.556859 -19.033771 0
M  V30 14 C 6.250459 4.995777 -13.649846 0 CFG=1
M  V30 15 N 8.787299 5.503607 -7.802889 0
M  V30 16 C 6.048632 6.559682 -17.894065 0 CFG=2
M  V30 17 O 5.935344 6.630241 -11.891666 0
M  V30 18 C 9.641718 4.147629 -12.017015 0
M  V30 19 C 5.909047 5.365458 -15.087481 0
M  V30 20 F 7.134768 4.000665 -13.718026 0
M  V30 21 C 8.530090 5.066818 -11.498803 0 CFG=1
M  V30 22 C 6.511483 7.328590 -14.140292 0
M  V30 23 C 9.769018 6.219337 -8.354566 0
M  V30 24 C 8.790163 7.627780 -12.025303 0
M  V30 25 C 7.339454 3.744885 -18.857462 0
M  V30 26 O 9.834849 6.161963 -9.714214 0
M  V30 27 O 10.190326 7.562716 -11.891279 0
M  V30 28 C 5.090941 6.715066 -20.376352 0
M  V30 29 N 6.582648 6.597924 -15.388912 0
M  V30 30 C 8.771283 5.369295 -10.045954 0
M  V30 31 O 10.684906 6.966981 -7.708864 0
M  V30 32 C 6.771008 6.309898 -12.994008 0 CFG=1
M  V30 33 H 11.255243 7.768009 -5.902507 0
M  V30 34 H 9.519258 7.533419 -6.076085 0
M  V30 35 H 10.589503 6.141553 -5.797261 0
M  V30 36 H 4.951833 7.545912 -16.298749 0
M  V30 37 H 6.486349 8.272456 -16.637913 0
M  V30 38 H 8.810720 6.035877 -13.414240 0
M  V30 39 H 5.809948 2.596282 -19.945955 0
M  V30 40 H 7.398526 2.655560 -20.704316 0
M  V30 41 H 8.957351 5.072884 -19.311005 0
M  V30 42 H 6.323666 4.335573 -21.970818 0
M  V30 43 H 4.635181 4.765525 -19.541130 0
M  V30 44 H 4.242513 4.906883 -21.212061 0
M  V30 45 H 7.289531 4.324409 -8.788600 0
M  V30 46 H 7.920538 7.248868 -18.770323 0
M  V30 47 H 8.125792 6.169261 -17.438030 0
M  V30 48 H 5.375835 4.590896 -13.137637 0
M  V30 49 H 5.590989 5.593101 -17.715954 0
M  V30 50 H 6.418555 7.130214 -11.239673 0
M  V30 51 H 9.626803 3.206281 -11.470068 0
M  V30 52 H 9.519485 3.900081 -13.070654 0
M  V30 53 H 10.622745 4.603965 -11.891668 0
M  V30 54 H 4.834592 5.515666 -15.166766 0
M  V30 55 H 6.234541 4.583209 -15.775056 0
M  V30 56 H 7.638100 4.442462 -11.484495 0
M  V30 57 H 5.506146 7.743042 -14.029610 0
M  V30 58 H 7.195224 8.169057 -14.170030 0
M  V30 59 H 8.332618 7.935579 -11.091652 0
M  V30 60 H 8.587517 8.436445 -12.718546 0
M  V30 61 H 8.144682 3.083309 -18.536671 0
M  V30 62 H 6.630139 3.782664 -18.036503 0
M  V30 63 H 10.364151 6.973925 -11.166626 0
M  V30 64 H 4.234840 7.151394 -20.887661 0
M  V30 65 H 5.935289 7.104689 -20.944945 0
M  V30 END ATOM
M  V30 BEGIN BOND
M  V30 1 1 7 6
M  V30 2 1 8 5
M  V30 3 1 8 6
M  V30 4 1 9 2
M  V30 5 1 10 8
M  V30 6 1 12 7
M  V30 7 1 13 2
M  V30 8 1 15 11
M  V30 9 1 16 2
M  V30 10 1 16 3
M  V30 11 1 16 12
M  V30 12 1 19 14
M  V30 13 1 20 14
M  V30 14 1 21 4
M  V30 15 1 21 18
M  V30 16 2 23 15
M  V30 17 1 24 4
M  V30 18 1 25 5
M  V30 19 1 25 7
M  V30 20 1 26 23
M  V30 21 1 27 24
M  V30 22 1 28 2
M  V30 23 1 28 10
M  V30 24 1 29 3
M  V30 25 1 29 19
M  V30 26 1 29 22
M  V30 27 2 30 11
M  V30 28 1 30 21
M  V30 29 1 30 26
M  V30 30 1 31 1
M  V30 31 1 31 23
M  V30 32 1 32 4
M  V30 33 1 32 14
M  V30 34 1 32 17 CFG=1
M  V30 35 1 32 22
M  V30 36 1 33 1
M  V30 37 1 34 1
M  V30 38 1 35 1
M  V30 39 1 36 3
M  V30 40 1 37 3
M  V30 41 1 4 38 CFG=3
M  V30 42 1 39 5
M  V30 43 1 40 5
M  V30 44 1 7 41 CFG=3
M  V30 45 1 8 42 CFG=3
M  V30 46 1 43 10
M  V30 47 1 44 10
M  V30 48 1 45 11
M  V30 49 1 46 12
M  V30 50 1 47 12
M  V30 51 1 14 48 CFG=1
M  V30 52 1 16 49 CFG=1
M  V30 53 1 50 17
M  V30 54 1 51 18
M  V30 55 1 52 18
M  V30 56 1 53 18
M  V30 57 1 54 19
M  V30 58 1 55 19
M  V30 59 1 21 56 CFG=1
M  V30 60 1 57 22
M  V30 61 1 58 22
M  V30 62 1 59 24
M  V30 63 1 60 24
M  V30 64 1 61 25
M  V30 65 1 62 25
M  V30 66 1 63 27
M  V30 67 1 64 28
M  V30 68 1 65 28
M  V30 END BOND
M  V30 END CTAB
M  END
>  <i_epik_Tot_Q>  (1) 
0

>  <i_epik_Tot_abs_Q>  (1) 
0

>  <i_i_glide_confnum>  (1) 
297

>  <i_i_glide_lignum>  (1) 
40

>  <i_i_glide_posenum>  (1) 
392

>  <i_i_glide_rotatable_bonds>  (1) 
9

>  <i_lp_mmshare_version>  (1) 
72125

>  <i_m_source_file_index>  (1) 
26

>  <i_f3d_flags>  (1) 
0

>  <num_sample>  (1) 
100

>  <b_lp_Chiralities_Consistent>  (1) 
1

>  <r_epik_Charging_Adjusted_Penalty>  (1) 
1.0631091651627218

>  <r_epik_Ionization_Penalty>  (1) 
1.0631126298453322

>  <r_epik_Ionization_Penalty_Charging>  (1) 
0

>  <r_epik_Ionization_Penalty_Neutral>  (1) 
1.0631126298453322

>  <r_epik_State_Penalty>  (1) 
1.0631091651627218

>  <r_glide_ring_energy>  (1) 
1.3601753823805443

>  <r_i_docking_score>  (1) 
-3.4044926600238243

>  <r_i_glide_ecoul>  (1) 
-3.03739304376069

>  <r_i_glide_eff_state_penalty>  (1) 
1.0631091651627218

>  <r_i_glide_einternal>  (1) 
4.5989872754785033

>  <r_i_glide_emodel>  (1) 
-41.221567916891061

>  <r_i_glide_emodel_strain>  (1) 
0.96101245726705997

>  <r_i_glide_energy>  (1) 
-34.056015892697474

>  <r_i_glide_erotb>  (1) 
0.56501407927423541

>  <r_i_glide_esite>  (1) 
0

>  <r_i_glide_evdw>  (1) 
-31.018622848936786

>  <r_i_glide_gscore>  (1) 
-4.4676018251865459

>  <r_i_glide_gscore_strain>  (1) 
0

>  <r_i_glide_hbond>  (1) 
-0.16

>  <r_i_glide_ligand_efficiency>  (1) 
-0.10639039562574451

>  <r_i_glide_ligand_efficiency_ln>  (1) 
-0.76235870954424956

>  <r_i_glide_ligand_efficiency_sa>  (1) 
-0.33776845187123961

>  <r_i_glide_lipo>  (1) 
-2.0201146890974595

>  <r_i_glide_metal>  (1) 
-0

>  <r_i_glide_rewards>  (1) 
-0.84596111635237892

>  <r_lp_Energy>  (1) 
23.195093

>  <s_epik_cmdline>  (1) 
J2VwaWtfcHl0aG9uJywgJy1waHQnLCAnMS4wJywgJy1waCcsICc3LjQnLCAnLXRuJywgJzgnLCAnLW1hJywgJzUwMCcsICctaW1hZScsICc8aW5maWxlLm1hZT4nLCAnLW9tYWUnLCAnPG91dGZpbGUubWFlPic=

>  <s_epik_input>  (1) 
W0NIM11PYzFuW2NIXWMobzEpW0NASF0oW0NIM10pW0NASF0oW0NIMl1bT0hdKVtDQF0yKFtPSF0pW0NASF0oRilbQ0gyXU4oW0NIMl0yKVtDSDJdW0NASF0oW0NIMl0zKUMoRikoRilbQ0gyXVtDSDJdW0NASF0oW0NIMl1bQ0gyXTQpT1tDQEBIXTM0

>  <s_glide_docking_method>  (1) 
confgen

>  <s_i_glide_gridfile>  (1) 
gpcr_drd2_6luq_protein_autoprepared_prepared

>  <s_lp_Force_Field>  (1) 
S-OPLS

>  <s_lp_Variant>  (1) 
DiffSBDD_25_num_sample_100-3

>  <s_m_source_file>  (1) 
generated__ligand_DiffSBDD_2026-05-06_prepared.sdf

>  <GenAI_Model>  (1) 
DiffSBDD

>  <Protein>  (1) 
generic_title2

$$$$
DiffSBDD_94_num_sample_100
     RDKit          3D

  0  0  0  0  0  0  0  0  0  0999 V3000
M  V30 BEGIN CTAB
M  V30 COUNTS 55 56 0 0 1
M  V30 BEGIN ATOM
M  V30 1 C 5.417188 6.451632 -17.873930 0
M  V30 2 C 6.087333 4.147034 -19.021403 0
M  V30 3 C 5.940937 5.974409 -20.922166 0 CFG=1
M  V30 4 N 8.068084 7.361225 -21.247724 0
M  V30 5 C 8.679420 8.608604 -21.705866 0
M  V30 6 S 7.937889 5.369283 -17.323807 0
M  V30 7 F 5.877657 5.270570 -22.053312 0
M  V30 8 C 9.674786 5.886000 -11.713058 0
M  V30 9 C 6.460134 5.470657 -18.386219 0 CFG=2
M  V30 10 C 7.407264 7.023200 -12.421241 0 CFG=1
M  V30 11 C 8.124354 5.012547 -20.444179 0
M  V30 12 C 9.228329 4.861070 -10.655582 0
M  V30 13 C 7.593407 2.522782 -14.285850 0
M  V30 14 C 8.407629 5.361614 -8.325371 0
M  V30 15 C 7.397828 6.274890 -13.689839 0
M  V30 16 C 7.299754 4.618144 -15.804889 0 CFG=1
M  V30 17 O 6.510142 6.451265 -11.491670 0
M  V30 18 C 7.956928 3.244822 -15.593514 0
M  V30 19 C 8.840118 6.299739 -20.888286 0
M  V30 20 C 6.728110 5.222854 -19.872055 0 CFG=1
M  V30 21 C 7.400837 5.565337 -14.683273 0
M  V30 22 O 10.070565 6.334619 -20.917536 0
M  V30 23 C 6.592743 7.338592 -21.190065 0
M  V30 24 C 9.384857 5.380571 -9.240510 0
M  V30 25 C 8.813928 7.167369 -11.799454 0
M  V30 26 H 4.489844 6.374565 -18.439427 0
M  V30 27 H 5.178396 6.257658 -16.828738 0
M  V30 28 H 5.790730 7.471636 -17.950352 0
M  V30 29 H 6.689312 3.276680 -18.771097 0
M  V30 30 H 5.034715 3.939895 -19.194924 0
M  V30 31 H 4.904825 6.100420 -20.613243 0
M  V30 32 H 9.025609 8.500376 -22.734371 0
M  V30 33 H 7.969195 9.435379 -21.677560 0
M  V30 34 H 9.535557 8.892671 -21.091668 0
M  V30 35 H 9.745062 5.396816 -12.684186 0
M  V30 36 H 10.691897 6.194359 -11.491737 0
M  V30 37 H 7.034734 8.023259 -12.637825 0
M  V30 38 H 8.754684 4.475740 -19.737429 0
M  V30 39 H 8.056832 4.355548 -21.312293 0
M  V30 40 H 8.198106 4.548673 -10.828889 0
M  V30 41 H 9.834628 3.960337 -10.747996 0
M  V30 42 H 8.045036 1.530421 -14.256232 0
M  V30 43 H 7.950877 3.066833 -13.411503 0
M  V30 44 H 6.514594 2.399743 -14.189544 0
M  V30 45 H 8.569497 5.745836 -7.329854 0
M  V30 46 H 7.434760 4.962791 -8.561527 0
M  V30 47 H 6.234838 4.481142 -15.892333 0
M  V30 48 H 6.634834 6.898477 -10.641553 0
M  V30 49 H 7.688471 2.598140 -16.429131 0
M  V30 50 H 9.034747 3.369387 -15.660947 0
M  V30 51 H 6.301423 8.020923 -20.390863 0
M  V30 52 H 6.186653 7.762951 -22.109055 0
M  V30 53 H 10.349609 5.785434 -8.977521 0
M  V30 54 H 9.366945 7.885225 -12.405639 0
M  V30 55 H 8.738385 7.634735 -10.816916 0
M  V30 END ATOM
M  V30 BEGIN BOND
M  V30 1 1 5 4
M  V30 2 1 7 3
M  V30 3 1 9 1
M  V30 4 1 9 2
M  V30 5 1 9 6 CFG=1
M  V30 6 1 12 8
M  V30 7 1 15 10
M  V30 8 1 16 6
M  V30 9 1 17 10
M  V30 10 1 18 13
M  V30 11 1 18 16
M  V30 12 1 19 4
M  V30 13 1 19 11
M  V30 14 1 20 2 CFG=3
M  V30 15 1 20 3
M  V30 16 1 20 9
M  V30 17 1 20 11
M  V30 18 3 21 15
M  V30 19 1 21 16
M  V30 20 2 22 19
M  V30 21 1 23 3
M  V30 22 1 23 4
M  V30 23 1 24 12
M  V30 24 2 24 14
M  V30 25 1 25 8
M  V30 26 1 25 10
M  V30 27 1 26 1
M  V30 28 1 27 1
M  V30 29 1 28 1
M  V30 30 1 29 2
M  V30 31 1 30 2
M  V30 32 1 3 31 CFG=1
M  V30 33 1 32 5
M  V30 34 1 33 5
M  V30 35 1 34 5
M  V30 36 1 35 8
M  V30 37 1 36 8
M  V30 38 1 10 37 CFG=3
M  V30 39 1 38 11
M  V30 40 1 39 11
M  V30 41 1 40 12
M  V30 42 1 41 12
M  V30 43 1 42 13
M  V30 44 1 43 13
M  V30 45 1 44 13
M  V30 46 1 45 14
M  V30 47 1 46 14
M  V30 48 1 16 47 CFG=3
M  V30 49 1 48 17
M  V30 50 1 49 18
M  V30 51 1 50 18
M  V30 52 1 51 23
M  V30 53 1 52 23
M  V30 54 1 53 24
M  V30 55 1 54 25
M  V30 56 1 55 25
M  V30 END BOND
M  V30 END CTAB
M  END
>  <i_epik_Tot_Q>  (1) 
0

>  <i_epik_Tot_abs_Q>  (1) 
0

>  <i_i_glide_confnum>  (1) 
62

>  <i_i_glide_lignum>  (1) 
189

>  <i_i_glide_posenum>  (1) 
73

>  <i_i_glide_rotatable_bonds>  (1) 
10

>  <i_lp_mmshare_version>  (1) 
72125

>  <i_m_source_file_index>  (1) 
95

>  <i_f3d_flags>  (1) 
0

>  <num_sample>  (1) 
100

>  <b_lp_Chiralities_Consistent>  (1) 
1

>  <r_epik_Charging_Adjusted_Penalty>  (1) 
0

>  <r_epik_Ionization_Penalty>  (1) 
2.8843446265645777e-07

>  <r_epik_Ionization_Penalty_Charging>  (1) 
0

>  <r_epik_Ionization_Penalty_Neutral>  (1) 
2.8843446265645777e-07

>  <r_epik_State_Penalty>  (1) 
-0

>  <r_glide_ring_energy>  (1) 
0

>  <r_i_docking_score>  (1) 
-3.3995001852329141

>  <r_i_glide_ecoul>  (1) 
-4.4585270598258226

>  <r_i_glide_eff_state_penalty>  (1) 
-0

>  <r_i_glide_einternal>  (1) 
3.7216504836400683

>  <r_i_glide_emodel>  (1) 
-28.837592624600489

>  <r_i_glide_emodel_strain>  (1) 
0.31160535069341933

>  <r_i_glide_energy>  (1) 
-24.864169400416351

>  <r_i_glide_erotb>  (1) 
1.1406536467652393

>  <r_i_glide_esite>  (1) 
0

>  <r_i_glide_evdw>  (1) 
-20.405642340590529

>  <r_i_glide_gscore>  (1) 
-3.3995001852329141

>  <r_i_glide_gscore_strain>  (1) 
0

>  <r_i_glide_hbond>  (1) 
-0.16

>  <r_i_glide_ligand_efficiency>  (1) 
-0.13598000740931657

>  <r_i_glide_ligand_efficiency_ln>  (1) 
-0.80578341869996029

>  <r_i_glide_ligand_efficiency_sa>  (1) 
-0.39760795370715862

>  <r_i_glide_lipo>  (1) 
-1.4048537848648455

>  <r_i_glide_metal>  (1) 
-0

>  <r_i_glide_rewards>  (1) 
-1.2862388711299082

>  <r_lp_Energy>  (1) 
17.436699000000001

>  <r_lp_tautomer_probability>  (1) 
1

>  <s_epik_cmdline>  (1) 
J2VwaWtfcHl0aG9uJywgJy1waHQnLCAnMS4wJywgJy1waCcsICc3LjQnLCAnLXRuJywgJzgnLCAnLW1hJywgJzUwMCcsICctaW1hZScsICc8aW5maWxlLm1hZT4nLCAnLW9tYWUnLCAnPG91dGZpbGUubWFlPic=

>  <s_epik_input>  (1) 
W0NIMl0xQyg9TylOKFtDSDNdKVtDSDJdW0NAQEhdKEYpW0NAQF0xMltDSDJdW0NAQF0yKFtDSDNdKVNbQ0BASF0oW0NIMl1bQ0gzXSlDI0NbQ0BASF0oW09IXSlbQ0gyXVtDSDJdW0NIMl1bQ0hdPVtDSDJd

>  <s_glide_docking_method>  (1) 
confgen

>  <s_i_glide_gridfile>  (1) 
gpcr_drd2_6luq_protein_autoprepared_prepared

>  <s_lp_Force_Field>  (1) 
S-OPLS

>  <s_lp_Variant>  (1) 
DiffSBDD_94_num_sample_100-1

>  <s_m_source_file>  (1) 
generated__ligand_DiffSBDD_2026-05-06_prepared.sdf

>  <GenAI_Model>  (1) 
DiffSBDD

>  <Protein>  (1) 
generic_title2

$$$$
DiffSBDD_89_num_sample_100
     RDKit          3D

  0  0  0  0  0  0  0  0  0  0999 V3000
M  V30 BEGIN CTAB
M  V30 COUNTS 75 80 0 0 1
M  V30 BEGIN ATOM
M  V30 1 C 8.401377 3.052852 -18.080590 0
M  V30 2 C 8.148520 1.303031 -20.018394 0
M  V30 3 C 7.536513 2.470832 -19.214786 0
M  V30 4 C 7.687205 0.211542 -16.908146 0
M  V30 5 C 8.424945 -1.142492 -20.304018 0 CFG=1
M  V30 6 C 5.350589 -3.058986 -21.306351 0 CFG=2
M  V30 7 C 6.646529 6.429263 -13.716113 0
M  V30 8 C 7.723181 -2.484545 -20.172581 0 CFG=2
M  V30 9 C 6.644267 6.959231 -12.291294 0
M  V30 10 C 5.832239 6.562151 -16.013087 0
M  V30 11 C 7.848337 -3.775956 -20.974272 0
M  V30 12 C 9.861094 -1.038094 -20.801854 0
M  V30 13 C 8.339283 4.657929 -13.014841 0
M  V30 14 C 4.764686 -3.493871 -19.948158 0
M  V30 15 C 6.634824 5.462798 -16.366696 0
M  V30 16 C 7.300901 -1.470022 -21.253894 0 CFG=1
M  V30 17 C 5.178863 -3.934803 -17.492258 0
M  V30 18 C 8.666992 -0.138131 -18.047797 0
M  V30 19 C 7.459004 5.322555 -14.066190 0
M  V30 20 C 6.971094 -2.761612 -18.843075 0
M  V30 21 C 9.924830 3.151568 -18.175667 0
M  V30 22 C 8.105461 1.440138 -16.091013 0
M  V30 23 C 7.766470 2.814083 -16.699950 0 CFG=1
M  V30 24 C 9.105744 4.377365 -18.383411 0
M  V30 25 C 5.827861 -3.802098 -18.877217 0 CFG=2
M  V30 26 N 8.020920 -0.039435 -19.382442 0 CFG=1 CHG=1
M  V30 27 C 6.512575 -4.015887 -21.756026 0
M  V30 28 C 5.791003 -1.557214 -21.264031 0
M  V30 29 O 8.236582 3.752082 -15.730650 0
M  V30 30 C 7.448149 4.833565 -15.394310 0
M  V30 31 C 5.834989 7.042064 -14.692241 0
M  V30 32 H 9.183266 1.513975 -20.278733 0
M  V30 33 H 7.619471 1.256827 -20.971143 0
M  V30 34 H 7.339570 3.280951 -19.917935 0
M  V30 35 H 6.548265 2.188525 -18.850784 0
M  V30 36 H 7.656810 -0.639941 -16.226136 0
M  V30 37 H 6.661816 0.322361 -17.262854 0
M  V30 38 H 4.540026 -3.139103 -22.032231 0
M  V30 39 H 5.924705 7.768818 -12.168892 0
M  V30 40 H 6.373632 6.175758 -11.582824 0
M  V30 41 H 7.626251 7.346448 -12.018158 0
M  V30 42 H 5.210775 7.037618 -16.757510 0
M  V30 43 H 8.090337 -4.609189 -20.314347 0
M  V30 44 H 8.682055 -3.706832 -21.673845 0
M  V30 45 H 10.186115 -1.978145 -21.245979 0
M  V30 46 H 9.946460 -0.265822 -21.566655 0
M  V30 47 H 10.542591 -0.792122 -19.988745 0
M  V30 48 H 7.727678 4.248120 -12.211000 0
M  V30 49 H 8.938551 3.842834 -13.419230 0
M  V30 50 H 9.029423 5.384011 -12.584952 0
M  V30 51 H 4.082676 -2.727143 -19.579432 0
M  V30 52 H 4.149805 -4.383477 -20.091145 0
M  V30 53 H 6.625265 5.101452 -17.382850 0
M  V30 54 H 7.686769 -1.592362 -22.266141 0
M  V30 55 H 4.734186 -2.995208 -17.163210 0
M  V30 56 H 4.389198 -4.686656 -17.493926 0
M  V30 57 H 5.908926 -4.230710 -16.737858 0
M  V30 58 H 9.578074 0.458373 -18.013279 0
M  V30 59 H 9.013224 -1.159149 -17.883785 0
M  V30 60 H 7.706565 -3.083121 -18.104404 0
M  V30 61 H 6.533396 -1.844214 -18.458450 0
M  V30 62 H 10.493101 3.095470 -17.248765 0
M  V30 63 H 10.446418 2.768336 -19.048093 0
M  V30 64 H 9.170450 1.378393 -15.891542 0
M  V30 65 H 7.619934 1.380990 -15.115569 0
M  V30 66 H 6.681010 2.870219 -16.778906 0
M  V30 67 H 9.056537 4.767036 -19.398152 0
M  V30 68 H 9.178505 5.140127 -17.611742 0
M  V30 69 H 6.250162 -4.782159 -19.097084 0
M  V30 70 H 6.205725 -5.059186 -21.673555 0
M  V30 71 H 6.699153 -3.851306 -22.818064 0
M  V30 72 H 5.364498 -1.014782 -20.419905 0
M  V30 73 H 5.435388 -1.047320 -22.159786 0
M  V30 74 H 5.213844 7.883860 -14.426589 0
M  V30 75 H 7.034850 -0.191303 -19.224952 0
M  V30 END ATOM
M  V30 BEGIN BOND
M  V30 1 1 3 1
M  V30 2 1 3 2
M  V30 3 1 8 5
M  V30 4 1 9 7
M  V30 5 1 8 11 CFG=3
M  V30 6 1 5 12 CFG=3
M  V30 7 1 14 6
M  V30 8 1 15 10
M  V30 9 1 16 5
M  V30 10 1 16 8
M  V30 11 1 18 4
M  V30 12 2 19 7
M  V30 13 1 19 13
M  V30 14 1 20 8
M  V30 15 1 21 1
M  V30 16 1 22 4
M  V30 17 1 23 1
M  V30 18 1 23 22
M  V30 19 1 24 1
M  V30 20 1 24 21
M  V30 21 1 25 14
M  V30 22 1 25 17
M  V30 23 1 25 20
M  V30 24 1 26 2
M  V30 25 1 26 5
M  V30 26 1 26 18
M  V30 27 1 27 6
M  V30 28 1 27 11
M  V30 29 1 28 6
M  V30 30 1 28 16
M  V30 31 1 29 23
M  V30 32 2 30 15
M  V30 33 1 30 19
M  V30 34 1 30 29
M  V30 35 1 31 7
M  V30 36 2 31 10
M  V30 37 1 32 2
M  V30 38 1 33 2
M  V30 39 1 34 3
M  V30 40 1 35 3
M  V30 41 1 36 4
M  V30 42 1 37 4
M  V30 43 1 6 38 CFG=3
M  V30 44 1 39 9
M  V30 45 1 40 9
M  V30 46 1 41 9
M  V30 47 1 42 10
M  V30 48 1 43 11
M  V30 49 1 44 11
M  V30 50 1 45 12
M  V30 51 1 46 12
M  V30 52 1 47 12
M  V30 53 1 48 13
M  V30 54 1 49 13
M  V30 55 1 50 13
M  V30 56 1 51 14
M  V30 57 1 52 14
M  V30 58 1 53 15
M  V30 59 1 16 54 CFG=3
M  V30 60 1 55 17
M  V30 61 1 56 17
M  V30 62 1 57 17
M  V30 63 1 58 18
M  V30 64 1 59 18
M  V30 65 1 60 20
M  V30 66 1 61 20
M  V30 67 1 62 21
M  V30 68 1 63 21
M  V30 69 1 64 22
M  V30 70 1 65 22
M  V30 71 1 23 66 CFG=3
M  V30 72 1 67 24
M  V30 73 1 68 24
M  V30 74 1 25 69 CFG=3
M  V30 75 1 70 27
M  V30 76 1 71 27
M  V30 77 1 72 28
M  V30 78 1 73 28
M  V30 79 1 74 31
M  V30 80 1 26 75 CFG=1
M  V30 END BOND
M  V30 END CTAB
M  END
>  <i_epik_Tot_Q>  (1) 
1

>  <i_epik_Tot_abs_Q>  (1) 
1

>  <i_i_glide_confnum>  (1) 
1

>  <i_i_glide_lignum>  (1) 
179

>  <i_i_glide_posenum>  (1) 
22

>  <i_i_glide_rotatable_bonds>  (1) 
3

>  <i_lp_mmshare_version>  (1) 
72125

>  <i_m_source_file_index>  (1) 
90

>  <i_f3d_flags>  (1) 
0

>  <num_sample>  (1) 
100

>  <b_lp_Chiralities_Consistent>  (1) 
1

>  <r_epik_Charging_Adjusted_Penalty>  (1) 
0.1480359762680355

>  <r_epik_Ionization_Penalty>  (1) 
0.074017988134017734

>  <r_epik_Ionization_Penalty_Charging>  (1) 
0.074017988134017734

>  <r_epik_Ionization_Penalty_Neutral>  (1) 
0

>  <r_epik_State_Penalty>  (1) 
0.074017988134017776

>  <r_glide_ring_energy>  (1) 
0.47314266246867254

>  <r_i_docking_score>  (1) 
-3.3982124961851983

>  <r_i_glide_ecoul>  (1) 
-2.5034600884342155

>  <r_i_glide_eff_state_penalty>  (1) 
0.074017988134017776

>  <r_i_glide_einternal>  (1) 
6.1934159488282461

>  <r_i_glide_emodel>  (1) 
-26.512723726825172

>  <r_i_glide_emodel_strain>  (1) 
0.36647751886710012

>  <r_i_glide_energy>  (1) 
-25.108036683623006

>  <r_i_glide_erotb>  (1) 
0.33268982325706958

>  <r_i_glide_esite>  (1) 
0

>  <r_i_glide_evdw>  (1) 
-22.604576595188789

>  <r_i_glide_gscore>  (1) 
-3.472230484319216

>  <r_i_glide_gscore_strain>  (1) 
0

>  <r_i_glide_hbond>  (1) 
0

>  <r_i_glide_ligand_efficiency>  (1) 
-0.10961975794145801

>  <r_i_glide_ligand_efficiency_ln>  (1) 
-0.76640106059570434

>  <r_i_glide_ligand_efficiency_sa>  (1) 
-0.34435738671712401

>  <r_i_glide_lipo>  (1) 
-1.363078629946149

>  <r_i_glide_metal>  (1) 
-0

>  <r_i_glide_rewards>  (1) 
-0.93609383460556472

>  <r_lp_Energy>  (1) 
80.633463999999989

>  <r_lp_tautomer_probability>  (1) 
1

>  <s_epik_cmdline>  (1) 
J2VwaWtfcHl0aG9uJywgJy1waHQnLCAnMS4wJywgJy1waCcsICc3LjQnLCAnLXRuJywgJzgnLCAnLW1hJywgJzUwMCcsICctaW1hZScsICc8aW5maWxlLm1hZT4nLCAnLW9tYWUnLCAnPG91dGZpbGUubWFlPic=

>  <s_epik_input>  (1) 
W0NIM11bQ0BIXShbQ0gyXTEpW0NIMl1bQ0BIXShbQ0gyXVtDSDJdMilbQ0gyXVtDQEhdKFtDQEBdMTIzKVtDQEBdMyhbQ0gzXSlOKFtDSDJdW0NIMl1DNDVbQ0gyXVtDSDJdNSlbQ0gyXVtDSDJdW0NIMl1bQ0BIXTRPYyhbY0hdW2NIXVtjSF02KWMoW0NIM10pYzZbQ0gzXQ==

>  <s_glide_docking_method>  (1) 
confgen

>  <s_i_glide_gridfile>  (1) 
gpcr_drd2_6luq_protein_autoprepared_prepared

>  <s_lp_Force_Field>  (1) 
S-OPLS

>  <s_lp_Variant>  (1) 
DiffSBDD_89_num_sample_100-1

>  <s_m_source_file>  (1) 
generated__ligand_DiffSBDD_2026-05-06_prepared.sdf

>  <GenAI_Model>  (1) 
DiffSBDD

>  <Protein>  (1) 
generic_title2

$$$$
DiffSBDD_6_num_sample_100
     RDKit          3D

  0  0  0  0  0  0  0  0  0  0999 V3000
M  V30 BEGIN CTAB
M  V30 COUNTS 64 67 0 0 1
M  V30 BEGIN ATOM
M  V30 1 N 7.434855 3.282589 -15.838028 0
M  V30 2 N 9.487594 5.847002 -9.752450 0
M  V30 3 C 9.481217 7.235912 -9.554699 0
M  V30 4 C 9.451820 7.830718 -12.064515 0
M  V30 5 C 7.530210 6.403934 -19.704408 0
M  V30 6 N 7.580190 4.485908 -12.158058 0
M  V30 7 C 8.124916 3.789411 -16.970961 0
M  V30 8 F 10.688576 7.510599 -7.531602 0
M  V30 9 C 6.234862 1.836071 -12.639585 0
M  V30 10 C 7.261414 1.842467 -15.640169 0
M  V30 11 C 7.990139 5.851072 -11.740556 0 CFG=1
M  V30 12 F 6.986748 5.658502 -20.665597 0
M  V30 13 C 7.865901 3.760854 -13.428636 0 CFG=2
M  V30 14 C 9.193719 5.236459 -11.046817 0 CFG=2
M  V30 15 C 8.345587 3.993164 -11.003633 0
M  V30 16 F 6.533446 6.969339 -19.023388 0
M  V30 17 C 10.752458 4.654568 -18.377267 0
M  V30 18 C 10.537121 3.581839 -17.619165 0
M  V30 19 C 8.394678 5.523021 -18.804909 0
M  V30 20 C 6.960568 4.106206 -14.681618 0 CFG=1
M  V30 21 F 8.647395 4.793175 -7.897643 0
M  V30 22 C 9.231906 2.906564 -17.464447 0
M  V30 23 C 9.727630 5.393304 -19.115886 0
M  V30 24 C 8.312473 6.980177 -12.659962 0
M  V30 25 C 6.573397 5.580526 -14.889950 0
M  V30 26 F 9.151119 8.963266 -7.948566 0
M  V30 27 C 9.434865 8.144013 -10.560339 0
M  V30 28 C 7.641733 2.210777 -13.167280 0 CFG=2
M  V30 29 C 7.757097 4.923801 -17.605349 0
M  V30 30 C 9.488083 7.678489 -8.087955 0
M  V30 31 C 7.973435 1.352047 -14.391368 0
M  V30 32 C 9.737560 4.911810 -8.657262 0
M  V30 33 F 8.236830 7.369359 -20.291854 0
M  V30 34 H 9.454609 8.786375 -12.581961 0
M  V30 35 H 10.413152 7.369287 -12.292065 0
M  V30 36 H 5.459248 1.911192 -13.399606 0
M  V30 37 H 6.220739 0.805823 -12.281931 0
M  V30 38 H 5.929283 2.467027 -11.806998 0
M  V30 39 H 6.200645 1.641584 -15.540286 0
M  V30 40 H 7.549611 1.255621 -16.511367 0
M  V30 41 H 7.261564 6.168767 -10.989513 0
M  V30 42 H 8.911104 3.937542 -13.683985 0
M  V30 43 H 10.063254 5.124865 -11.697087 0
M  V30 44 H 7.682599 3.936932 -10.139379 0
M  V30 45 H 9.010349 3.142038 -11.148753 0
M  V30 46 H 11.772288 4.999362 -18.466852 0
M  V30 47 H 11.375638 3.115734 -17.121209 0
M  V30 48 H 5.982632 3.694666 -14.446165 0
M  V30 49 H 9.450608 2.072245 -16.802007 0
M  V30 50 H 8.940216 2.472841 -18.422095 0
M  V30 51 H 10.072345 5.939731 -19.981065 0
M  V30 52 H 7.431139 7.595575 -12.841689 0
M  V30 53 H 8.646772 6.572610 -13.605297 0
M  V30 54 H 6.202952 6.010750 -13.962236 0
M  V30 55 H 7.388625 6.198030 -15.259897 0
M  V30 56 H 5.726803 5.665694 -15.570266 0
M  V30 57 H 9.397975 9.183153 -10.291771 0
M  V30 58 H 8.345837 1.831400 -12.435278 0
M  V30 59 H 6.891480 5.427762 -17.238770 0
M  V30 60 H 8.749878 7.133884 -7.498370 0
M  V30 61 H 7.724898 0.305550 -14.207187 0
M  V30 62 H 9.034836 1.367557 -14.566234 0
M  V30 63 H 10.000468 3.918197 -9.016961 0
M  V30 64 H 10.557317 5.238631 -8.020275 0
M  V30 END ATOM
M  V30 BEGIN BOND
M  V30 1 1 3 2
M  V30 2 1 7 1
M  V30 3 1 10 1
M  V30 4 1 11 6
M  V30 5 1 12 5
M  V30 6 1 13 6
M  V30 7 1 14 2
M  V30 8 1 14 11
M  V30 9 1 15 6
M  V30 10 1 15 14
M  V30 11 1 16 5
M  V30 12 2 18 17
M  V30 13 1 19 5
M  V30 14 1 20 1
M  V30 15 1 20 13
M  V30 16 1 22 7
M  V30 17 1 22 18
M  V30 18 1 23 17
M  V30 19 2 23 19
M  V30 20 1 24 4
M  V30 21 1 24 11
M  V30 22 1 25 20
M  V30 23 2 27 3
M  V30 24 1 27 4
M  V30 25 1 28 9
M  V30 26 1 28 13
M  V30 27 2 29 7
M  V30 28 1 29 19
M  V30 29 1 30 3
M  V30 30 1 30 8
M  V30 31 1 30 26
M  V30 32 1 31 10
M  V30 33 1 31 28
M  V30 34 1 32 2
M  V30 35 1 32 21
M  V30 36 1 33 5
M  V30 37 1 34 4
M  V30 38 1 35 4
M  V30 39 1 36 9
M  V30 40 1 37 9
M  V30 41 1 38 9
M  V30 42 1 39 10
M  V30 43 1 40 10
M  V30 44 1 11 41 CFG=1
M  V30 45 1 13 42 CFG=3
M  V30 46 1 14 43 CFG=3
M  V30 47 1 44 15
M  V30 48 1 45 15
M  V30 49 1 46 17
M  V30 50 1 47 18
M  V30 51 1 20 48 CFG=1
M  V30 52 1 49 22
M  V30 53 1 50 22
M  V30 54 1 51 23
M  V30 55 1 52 24
M  V30 56 1 53 24
M  V30 57 1 54 25
M  V30 58 1 55 25
M  V30 59 1 56 25
M  V30 60 1 57 27
M  V30 61 1 28 58 CFG=1
M  V30 62 1 59 29
M  V30 63 1 60 30
M  V30 64 1 61 31
M  V30 65 1 62 31
M  V30 66 1 63 32
M  V30 67 1 64 32
M  V30 END BOND
M  V30 END CTAB
M  END
>  <i_epik_Tot_Q>  (1) 
0

>  <i_epik_Tot_abs_Q>  (1) 
0

>  <i_i_glide_confnum>  (1) 
19

>  <i_i_glide_lignum>  (1) 
9

>  <i_i_glide_posenum>  (1) 
121

>  <i_i_glide_rotatable_bonds>  (1) 
5

>  <i_lp_mmshare_version>  (1) 
72125

>  <i_m_source_file_index>  (1) 
7

>  <i_f3d_flags>  (1) 
0

>  <num_sample>  (1) 
100

>  <b_lp_Chiralities_Consistent>  (1) 
1

>  <r_epik_Charging_Adjusted_Penalty>  (1) 
0.092622925798260772

>  <r_epik_Ionization_Penalty>  (1) 
0.092625697702171175

>  <r_epik_Ionization_Penalty_Charging>  (1) 
0.00035560143118834142

>  <r_epik_Ionization_Penalty_Neutral>  (1) 
0.092270096270982829

>  <r_epik_State_Penalty>  (1) 
0.092267324367072426

>  <r_glide_ring_energy>  (1) 
0.067460085264339317

>  <r_i_docking_score>  (1) 
-3.3981421654071462

>  <r_i_glide_ecoul>  (1) 
-1.3466110392484485

>  <r_i_glide_eff_state_penalty>  (1) 
0.092267324367072426

>  <r_i_glide_einternal>  (1) 
2.5365621706331538

>  <r_i_glide_emodel>  (1) 
-19.590890368877677

>  <r_i_glide_emodel_strain>  (1) 
4.9984282553278376

>  <r_i_glide_energy>  (1) 
-20.200556624548625

>  <r_i_glide_erotb>  (1) 
0.17904337208641333

>  <r_i_glide_esite>  (1) 
-0.13460417301130248

>  <r_i_glide_evdw>  (1) 
-18.853945585300178

>  <r_i_glide_gscore>  (1) 
-3.4904094897742186

>  <r_i_glide_gscore_strain>  (1) 
0.24960706383195941

>  <r_i_glide_hbond>  (1) 
0

>  <r_i_glide_ligand_efficiency>  (1) 
-0.10297400501233776

>  <r_i_glide_ligand_efficiency_ln>  (1) 
-0.75572922294806166

>  <r_i_glide_ligand_efficiency_sa>  (1) 
-0.3302926561742357

>  <r_i_glide_lipo>  (1) 
-1.640488816674621

>  <r_i_glide_metal>  (1) 
-0

>  <r_i_glide_rewards>  (1) 
-0.99927800085439134

>  <r_lp_Energy>  (1) 
53.872712999999997

>  <s_epik_Chemistry_Notes>  (1) 
This compound has an imine and may undergo hydrolysis.

>  <s_epik_cmdline>  (1) 
J2VwaWtfcHl0aG9uJywgJy1waHQnLCAnMS4wJywgJy1waCcsICc3LjQnLCAnLXRuJywgJzgnLCAnLW1hJywgJzUwMCcsICctaW1hZScsICc8aW5maWxlLm1hZT4nLCAnLW9tYWUnLCAnPG91dGZpbGUubWFlPic=

>  <s_epik_input>  (1) 
W0NIMl0xW0NIXT1bQ0hdW0NIXT1DKEMoRikoRilGKVtDSF09QzFOMltDSDJdW0NIMl1bQ0BIXShbQ0gzXSlbQ0BASF0oW0NASF0yW0NIM10pTjNbQ0gyXVtDQEBIXShbQ0BIXTM0KU4oW0NIMl1GKUMoW0NIXShGKUYpPVtDSF1bQ0gyXVtDSDJdNA==

>  <s_glide_docking_method>  (1) 
confgen

>  <s_i_glide_gridfile>  (1) 
gpcr_drd2_6luq_protein_autoprepared_prepared

>  <s_lp_Force_Field>  (1) 
S-OPLS

>  <s_lp_Variant>  (1) 
DiffSBDD_6_num_sample_100-1

>  <s_m_source_file>  (1) 
generated__ligand_DiffSBDD_2026-05-06_prepared.sdf

>  <GenAI_Model>  (1) 
DiffSBDD

>  <Protein>  (1) 
generic_title2

$$$$
DiffSBDD_65_num_sample_100
     RDKit          3D

  0  0  0  0  0  0  0  0  0  0999 V3000
M  V30 BEGIN CTAB
M  V30 COUNTS 36 36 0 0 1
M  V30 BEGIN ATOM
M  V30 1 C 10.532422 5.935275 -7.775132 0
M  V30 2 C 5.604513 5.133211 -11.534488 0
M  V30 3 C 12.254542 8.977353 -4.074387 0
M  V30 4 C 10.848387 6.650615 -1.602925 0
M  V30 5 S 7.325321 5.582084 -11.864880 0 CHG=1
M  V30 6 C 11.834886 9.595414 -5.268796 0
M  V30 7 C 10.608939 7.578261 -5.882491 0
M  V30 8 C 9.060266 5.744324 -9.826166 0
M  V30 9 C 11.853365 7.658975 -3.789173 0
M  V30 10 C 7.815374 4.211953 -12.947326 0
M  V30 11 S 12.376484 6.889618 -2.293502 0
M  V30 12 C 11.034839 6.956123 -4.691667 0
M  V30 13 N 7.995547 4.969279 -10.419050 0
M  V30 14 N 9.816084 6.569300 -1.091668 0
M  V30 15 C 11.013024 8.895885 -6.171956 0
M  V30 16 C 9.644917 5.010406 -8.616268 0
M  V30 17 C 9.715140 6.833151 -6.844891 0
M  V30 18 H 11.172474 6.541860 -8.416716 0
M  V30 19 H 11.206955 5.340741 -7.162761 0
M  V30 20 H 5.034839 5.207618 -12.458274 0
M  V30 21 H 5.525156 4.112915 -11.158138 0
M  V30 22 H 5.172691 5.811134 -10.797169 0
M  V30 23 H 12.883513 9.514622 -3.379296 0
M  V30 24 H 12.141963 10.604761 -5.491682 0
M  V30 25 H 8.644707 6.700364 -9.521752 0
M  V30 26 H 9.834940 5.946187 -10.565353 0
M  V30 27 H 7.311635 4.291859 -13.910501 0
M  V30 28 H 8.891984 4.235718 -13.118236 0
M  V30 29 H 7.559809 3.250231 -12.501758 0
M  V30 30 H 10.726473 5.944471 -4.468711 0
M  V30 31 H 7.300673 4.808315 -9.702421 0
M  V30 32 H 10.689658 9.369297 -7.085866 0
M  V30 33 H 10.228300 4.155256 -8.956377 0
M  V30 34 H 8.849836 4.600683 -7.991267 0
M  V30 35 H 9.007631 6.236728 -6.266557 0
M  V30 36 H 9.114590 7.541388 -7.417437 0
M  V30 END ATOM
M  V30 BEGIN BOND
M  V30 1 1 5 2
M  V30 2 1 6 3
M  V30 3 2 9 3
M  V30 4 1 10 5
M  V30 5 1 11 4
M  V30 6 1 11 9
M  V30 7 2 12 7
M  V30 8 1 12 9
M  V30 9 1 13 5
M  V30 10 1 13 8
M  V30 11 3 14 4
M  V30 12 2 15 6
M  V30 13 1 15 7
M  V30 14 1 16 1
M  V30 15 1 16 8
M  V30 16 1 17 1
M  V30 17 1 17 7
M  V30 18 1 18 1
M  V30 19 1 19 1
M  V30 20 1 20 2
M  V30 21 1 21 2
M  V30 22 1 22 2
M  V30 23 1 23 3
M  V30 24 1 24 6
M  V30 25 1 25 8
M  V30 26 1 26 8
M  V30 27 1 27 10
M  V30 28 1 28 10
M  V30 29 1 29 10
M  V30 30 1 30 12
M  V30 31 1 31 13
M  V30 32 1 32 15
M  V30 33 1 33 16
M  V30 34 1 34 16
M  V30 35 1 35 17
M  V30 36 1 36 17
M  V30 END BOND
M  V30 END CTAB
M  END
>  <i_epik_Tot_Q>  (1) 
1

>  <i_epik_Tot_abs_Q>  (1) 
1

>  <i_i_glide_confnum>  (1) 
119

>  <i_i_glide_lignum>  (1) 
128

>  <i_i_glide_posenum>  (1) 
246

>  <i_i_glide_rotatable_bonds>  (1) 
7

>  <i_lp_mmshare_version>  (1) 
72125

>  <i_m_source_file_index>  (1) 
66

>  <i_f3d_flags>  (1) 
0

>  <num_sample>  (1) 
100

>  <b_lp_Chiralities_Consistent>  (1) 
1

>  <r_epik_Charging_Adjusted_Penalty>  (1) 
0

>  <r_epik_Ionization_Penalty>  (1) 
2.8679702438893361e-14

>  <r_epik_Ionization_Penalty_Charging>  (1) 
0

>  <r_epik_Ionization_Penalty_Neutral>  (1) 
2.8679702438893361e-14

>  <r_epik_State_Penalty>  (1) 
-0

>  <r_glide_ring_energy>  (1) 
0

>  <r_i_docking_score>  (1) 
-3.3953854572543376

>  <r_i_glide_ecoul>  (1) 
-2.7359102962031501

>  <r_i_glide_eff_state_penalty>  (1) 
-0

>  <r_i_glide_einternal>  (1) 
3.0314827270583398

>  <r_i_glide_emodel>  (1) 
-37.087616940609138

>  <r_i_glide_emodel_strain>  (1) 
0.5538006707224099

>  <r_i_glide_energy>  (1) 
-30.508369038602712

>  <r_i_glide_erotb>  (1) 
2.9918565276510027

>  <r_i_glide_esite>  (1) 
-0.047539014256489133

>  <r_i_glide_evdw>  (1) 
-27.772458742399561

>  <r_i_glide_gscore>  (1) 
-3.3953854572543376

>  <r_i_glide_gscore_strain>  (1) 
0

>  <r_i_glide_hbond>  (1) 
0

>  <r_i_glide_ligand_efficiency>  (1) 
-0.19972855630907868

>  <r_i_glide_ligand_efficiency_ln>  (1) 
-0.88578045428106034

>  <r_i_glide_ligand_efficiency_sa>  (1) 
-0.51355835996628085

>  <r_i_glide_lipo>  (1) 
-2.2662291349409966

>  <r_i_glide_metal>  (1) 
-0

>  <r_i_glide_rewards>  (1) 
-2.2744643541574039

>  <r_lp_Energy>  (1) 
7.7387159999999993

>  <r_lp_tautomer_probability>  (1) 
1

>  <s_epik_cmdline>  (1) 
J2VwaWtfcHl0aG9uJywgJy1waHQnLCAnMS4wJywgJy1waCcsICc3LjQnLCAnLXRuJywgJzgnLCAnLW1hJywgJzUwMCcsICctaW1hZScsICc8aW5maWxlLm1hZT4nLCAnLW9tYWUnLCAnPG91dGZpbGUubWFlPic=

>  <s_epik_input>  (1) 
W0NIM11bUytdKFtDSDNdKVtOSF1bQ0gyXVtDSDJdW0NIMl1bQ0gyXWMxW2NIXWMoU0MjTilbY0hdW2NIXVtjSF0x

>  <s_glide_docking_method>  (1) 
confgen

>  <s_i_glide_gridfile>  (1) 
gpcr_drd2_6luq_protein_autoprepared_prepared

>  <s_lp_Force_Field>  (1) 
S-OPLS

>  <s_lp_Variant>  (1) 
DiffSBDD_65_num_sample_100-1

>  <s_m_source_file>  (1) 
generated__ligand_DiffSBDD_2026-05-06_prepared.sdf

>  <GenAI_Model>  (1) 
DiffSBDD

>  <Protein>  (1) 
generic_title2

$$$$
DiffSBDD_47_num_sample_100
     RDKit          3D

  0  0  0  0  0  0  0  0  0  0999 V3000
M  V30 BEGIN CTAB
M  V30 COUNTS 60 66 0 0 1
M  V30 BEGIN ATOM
M  V30 1 C 10.656040 7.184720 -8.367481 0 CFG=1
M  V30 2 N 7.455346 4.616763 -9.919244 0
M  V30 3 N 4.634953 0.410235 -19.400814 0
M  V30 4 C 6.604911 6.552289 -15.797578 0
M  V30 5 C 7.302532 1.341097 -15.832941 0
M  V30 6 C 9.477280 6.191767 -10.341898 0
M  V30 7 C 10.424353 7.024891 -9.828027 0
M  V30 8 C 5.570260 0.741882 -20.294904 0
M  V30 9 N 6.821870 0.637681 -19.891040 0
M  V30 10 N 7.418738 2.785797 -13.823212 0
M  V30 11 N 7.440569 5.104097 -12.233239 0
M  V30 12 N 7.388076 -0.035004 -16.328129 0
M  V30 13 N 8.760529 5.148600 -12.327661 0
M  V30 14 C 5.472753 0.066150 -18.304594 0
M  V30 15 C 6.783510 0.200766 -18.604970 0
M  V30 16 C 8.768490 5.464738 -8.140262 0
M  V30 17 C 7.116367 1.446644 -14.313228 0
M  V30 18 N 5.034846 -0.359351 -17.072832 0
M  V30 19 C 6.788229 4.623907 -11.129852 0
M  V30 20 C 6.425591 3.823417 -14.132056 0
M  V30 21 O 5.648585 4.169807 -11.213443 0
M  V30 22 O 5.723315 6.171574 -13.515997 0
M  V30 23 F 11.235632 7.696123 -10.669590 0
M  V30 24 C 7.942191 -0.071539 -17.728818 0 CFG=2
M  V30 25 C 8.605504 -1.415029 -18.060726 0
M  V30 26 C 6.076851 -0.781965 -16.122134 0
M  V30 27 C 9.434267 6.030745 -11.743460 0
M  V30 28 C 6.765108 5.184230 -13.504184 0 CFG=1
M  V30 29 C 6.877796 6.462434 -14.312103 0 CFG=1
M  V30 30 C 9.820017 6.283389 -7.481703 0 CFG=2
M  V30 31 C 8.582588 5.401439 -9.471360 0
M  V30 32 C 11.007276 8.532472 -7.777765 0
M  V30 33 C 9.716928 7.805294 -7.421717 0 CFG=1
M  V30 34 H 6.950323 4.168982 -9.167912 0
M  V30 35 H 7.457221 6.168560 -16.358102 0
M  V30 36 H 5.724805 5.967807 -16.065766 0
M  V30 37 H 6.425247 7.589582 -16.081379 0
M  V30 38 H 6.508546 1.881356 -16.348478 0
M  V30 39 H 8.229383 1.859910 -16.081497 0
M  V30 40 H 5.316289 1.071754 -21.291880 0
M  V30 41 H 7.550013 2.753359 -12.816736 0
M  V30 42 H 7.648009 0.842501 -20.433143 0
M  V30 43 H 8.102977 4.921386 -7.491453 0
M  V30 44 H 7.793934 0.737933 -13.834292 0
M  V30 45 H 6.107709 1.155342 -14.019442 0
M  V30 46 H 4.061756 -0.564705 -16.898610 0
M  V30 47 H 5.449517 3.519293 -13.752105 0
M  V30 48 H 6.322979 3.939934 -15.207999 0
M  V30 49 H 8.694180 0.708154 -17.855110 0
M  V30 50 H 8.982485 -1.425989 -19.083361 0
M  V30 51 H 9.447069 -1.607489 -17.394414 0
M  V30 52 H 7.904769 -2.243591 -17.953154 0
M  V30 53 H 6.234601 -1.844466 -16.291605 0
M  V30 54 H 5.713252 -0.688237 -15.099114 0
M  V30 55 H 10.085347 6.698447 -12.306150 0
M  V30 56 H 7.512623 7.250274 -13.910648 0
M  V30 57 H 10.342605 5.769953 -6.678252 0
M  V30 58 H 10.994032 9.369201 -8.469387 0
M  V30 59 H 11.795666 8.554447 -7.028501 0
M  V30 60 H 8.805762 8.242721 -7.824118 0
M  V30 END ATOM
M  V30 BEGIN BOND
M  V30 1 1 7 1
M  V30 2 2 7 6
M  V30 3 2 8 3
M  V30 4 1 9 8
M  V30 5 1 12 5
M  V30 6 1 13 11
M  V30 7 1 14 3
M  V30 8 1 15 9
M  V30 9 2 15 14
M  V30 10 1 17 5
M  V30 11 1 17 10
M  V30 12 1 18 14
M  V30 13 1 19 2
M  V30 14 1 19 11
M  V30 15 1 20 10
M  V30 16 2 21 19
M  V30 17 1 23 7
M  V30 18 1 24 12
M  V30 19 1 24 15
M  V30 20 1 25 24
M  V30 21 1 26 12
M  V30 22 1 26 18
M  V30 23 1 27 6
M  V30 24 2 27 13
M  V30 25 1 28 11
M  V30 26 1 28 20 CFG=3
M  V30 27 1 28 22
M  V30 28 1 29 4
M  V30 29 1 29 22
M  V30 30 1 29 28
M  V30 31 1 30 1
M  V30 32 1 30 16
M  V30 33 1 31 2
M  V30 34 1 31 6
M  V30 35 2 31 16
M  V30 36 1 1 32 CFG=1
M  V30 37 1 33 1
M  V30 38 1 33 30
M  V30 39 1 33 32
M  V30 40 1 34 2
M  V30 41 1 35 4
M  V30 42 1 36 4
M  V30 43 1 37 4
M  V30 44 1 38 5
M  V30 45 1 39 5
M  V30 46 1 40 8
M  V30 47 1 41 10
M  V30 48 1 42 9
M  V30 49 1 43 16
M  V30 50 1 44 17
M  V30 51 1 45 17
M  V30 52 1 46 18
M  V30 53 1 47 20
M  V30 54 1 48 20
M  V30 55 1 24 49 CFG=1
M  V30 56 1 50 25
M  V30 57 1 51 25
M  V30 58 1 52 25
M  V30 59 1 53 26
M  V30 60 1 54 26
M  V30 61 1 55 27
M  V30 62 1 29 56 CFG=1
M  V30 63 1 30 57 CFG=1
M  V30 64 1 58 32
M  V30 65 1 59 32
M  V30 66 1 33 60 CFG=3
M  V30 END BOND
M  V30 END CTAB
M  END
>  <i_epik_Tot_Q>  (1) 
0

>  <i_epik_Tot_abs_Q>  (1) 
0

>  <i_i_glide_confnum>  (1) 
265

>  <i_i_glide_lignum>  (1) 
88

>  <i_i_glide_posenum>  (1) 
297

>  <i_i_glide_rotatable_bonds>  (1) 
6

>  <i_lp_mmshare_version>  (1) 
72125

>  <i_m_source_file_index>  (1) 
48

>  <i_f3d_flags>  (1) 
2

>  <num_sample>  (1) 
100

>  <b_lp_Chiralities_Consistent>  (1) 
0

>  <r_epik_Charging_Adjusted_Penalty>  (1) 
0.98731157914139778

>  <r_epik_Ionization_Penalty>  (1) 
1.0089239767468481

>  <r_epik_Ionization_Penalty_Charging>  (1) 
0.0054720513801765243

>  <r_epik_Ionization_Penalty_Neutral>  (1) 
1.0034519253666716

>  <r_epik_State_Penalty>  (1) 
0.9818395277612213

>  <r_glide_ring_energy>  (1) 
0

>  <r_i_docking_score>  (1) 
-3.3938841988351571

>  <r_i_glide_ecoul>  (1) 
-0.82054976901428978

>  <r_i_glide_eff_state_penalty>  (1) 
0.9818395277612213

>  <r_i_glide_einternal>  (1) 
2.2730815705100529

>  <r_i_glide_emodel>  (1) 
-49.811516162906699

>  <r_i_glide_emodel_strain>  (1) 
0.04249379789609975

>  <r_i_glide_energy>  (1) 
-41.461019023437679

>  <r_i_glide_erotb>  (1) 
0.58326009776632259

>  <r_i_glide_esite>  (1) 
-0.10284242432538436

>  <r_i_glide_evdw>  (1) 
-40.640469254423387

>  <r_i_glide_gscore>  (1) 
-4.3757237265963784

>  <r_i_glide_gscore_strain>  (1) 
0

>  <r_i_glide_hbond>  (1) 
-0.10834171729850106

>  <r_i_glide_ligand_efficiency>  (1) 
-0.10284497572227749

>  <r_i_glide_ligand_efficiency_ln>  (1) 
-0.75478227322902225

>  <r_i_glide_ligand_efficiency_sa>  (1) 
-0.3298787902967924

>  <r_i_glide_lipo>  (1) 
-1.0364570927263501

>  <r_i_glide_metal>  (1) 
-0

>  <r_i_glide_rewards>  (1) 
-1.5562366619391528

>  <r_lp_Energy>  (1) 
73.522155999999995

>  <r_lp_tautomer_probability>  (1) 
0.94542902837213583

>  <s_epik_Chemistry_Notes>  (1) 
This compound has an imine and may undergo hydrolysis. This compound contains an acetal/aminal-like group ( X-CH(R)-Y where X, Y are N, S, or O) that may be acid/base labile, releasing an aldehyde.

>  <s_epik_cmdline>  (1) 
J2VwaWtfcHl0aG9uJywgJy1waHQnLCAnMS4wJywgJy1waCcsICc3LjQnLCAnLXRuJywgJzgnLCAnLW1hJywgJzUwMCcsICctaW1hZScsICc8aW5maWxlLm1hZT4nLCAnLW9tYWUnLCAnPG91dGZpbGUubWFlPic=

>  <s_epik_input>  (1) 
W0NIMl0xW0NAQEhdMltDQEhdKEMxMjMpW0NIXT1DNEMoPUMzRilbQ0hdPU5OKEMoPU8pW05IXTQpW0NAXTUoT1tDQEBIXTVbQ0gzXSlbQ0gyXVtOSF1bQ0gyXVtDSDJdTihbQ0gyXVtOSF02KVtDQEBIXShbQ0gzXSlbQ0BIXShDNjcpTj1bQ0hdTj03

>  <s_glide_docking_method>  (1) 
confgen

>  <s_i_glide_gridfile>  (1) 
gpcr_drd2_6luq_protein_autoprepared_prepared

>  <s_lp_Force_Field>  (1) 
S-OPLS

>  <s_lp_Variant>  (1) 
DiffSBDD_47_num_sample_100-2

>  <s_m_source_file>  (1) 
generated__ligand_DiffSBDD_2026-05-06_prepared.sdf

>  <GenAI_Model>  (1) 
DiffSBDD

>  <Protein>  (1) 
generic_title2

$$$$
DiffSBDD_42_num_sample_100
     RDKit          3D

  0  0  0  0  0  0  0  0  0  0999 V3000
M  V30 BEGIN CTAB
M  V30 COUNTS 45 46 0 0 1
M  V30 BEGIN ATOM
M  V30 1 C 6.061131 6.668595 -16.617058 0 CFG=2
M  V30 2 O 3.734550 7.083909 -17.091699 0
M  V30 3 N 8.414501 5.580585 -13.319456 0
M  V30 4 C 7.219031 1.296411 -13.745859 0
M  V30 5 C 10.609955 6.683603 -12.291665 0
M  V30 6 O 9.834775 5.730482 -11.572572 0
M  V30 7 C 7.570863 2.683241 -14.237754 0 CFG=1
M  V30 8 N 5.158525 6.894245 -18.929926 0
M  V30 9 C 6.294956 6.306688 -14.226933 0 CFG=2
M  V30 10 C 7.484887 6.134732 -18.602986 0
M  V30 11 C 6.683518 3.872562 -13.905265 0
M  V30 12 C 5.877686 7.161981 -12.017520 0
M  V30 13 O 5.534755 6.169079 -15.387407 0
M  V30 14 C 4.854678 6.901567 -17.564634 0
M  V30 15 C 8.695093 5.146122 -12.021988 0
M  V30 16 N 7.278955 5.217214 -14.084299 0
M  V30 17 C 6.533722 6.601077 -20.927068 0
M  V30 18 O 8.032930 4.354259 -11.356756 0
M  V30 19 C 7.074729 5.683395 -17.209346 0
M  V30 20 N 8.234725 2.096666 -13.091663 0 CHG=1
M  V30 21 O 5.435185 6.406864 -13.136419 0
M  V30 22 C 6.289925 6.571082 -19.434102 0
M  V30 23 H 6.526393 7.642454 -16.455770 0
M  V30 24 H 9.063075 6.232489 -13.733271 0
M  V30 25 H 6.386404 1.141968 -13.061575 0
M  V30 26 H 7.682716 0.416625 -14.188125 0
M  V30 27 H 11.462147 6.990339 -11.685455 0
M  V30 28 H 10.996392 6.257955 -13.218236 0
M  V30 29 H 10.022020 7.573570 -12.518826 0
M  V30 30 H 8.234693 2.771507 -15.094866 0
M  V30 31 H 6.872344 7.229462 -14.314648 0
M  V30 32 H 8.011714 5.328173 -19.113960 0
M  V30 33 H 8.182038 6.969565 -18.539893 0
M  V30 34 H 6.253359 3.777065 -12.907954 0
M  V30 35 H 5.834829 3.809532 -14.581771 0
M  V30 36 H 5.015654 7.457200 -11.420264 0
M  V30 37 H 6.513532 6.567252 -11.370748 0
M  V30 38 H 6.414771 8.068686 -12.291681 0
M  V30 39 H 7.458106 7.133579 -21.151888 0
M  V30 40 H 6.614194 5.585485 -21.314604 0
M  V30 41 H 5.715232 7.102919 -21.444887 0
M  V30 42 H 7.964100 5.604535 -16.585755 0
M  V30 43 H 6.634936 4.686547 -17.257692 0
M  V30 44 H 9.190623 1.805057 -13.237838 0
M  V30 45 H 7.991726 2.555299 -12.219850 0
M  V30 END ATOM
M  V30 BEGIN BOND
M  V30 1 1 6 5
M  V30 2 1 7 4
M  V30 3 1 11 7
M  V30 4 1 13 1
M  V30 5 1 13 9
M  V30 6 1 14 1
M  V30 7 2 14 2
M  V30 8 1 14 8
M  V30 9 1 15 3
M  V30 10 1 15 6
M  V30 11 1 16 3
M  V30 12 1 16 9
M  V30 13 1 16 11
M  V30 14 2 18 15
M  V30 15 1 19 1
M  V30 16 1 19 10
M  V30 17 1 20 4
M  V30 18 1 20 7
M  V30 19 1 21 9
M  V30 20 1 21 12
M  V30 21 2 22 8
M  V30 22 1 22 10
M  V30 23 1 22 17
M  V30 24 1 1 23 CFG=1
M  V30 25 1 24 3
M  V30 26 1 25 4
M  V30 27 1 26 4
M  V30 28 1 27 5
M  V30 29 1 28 5
M  V30 30 1 29 5
M  V30 31 1 7 30 CFG=3
M  V30 32 1 9 31 CFG=3
M  V30 33 1 32 10
M  V30 34 1 33 10
M  V30 35 1 34 11
M  V30 36 1 35 11
M  V30 37 1 36 12
M  V30 38 1 37 12
M  V30 39 1 38 12
M  V30 40 1 39 17
M  V30 41 1 40 17
M  V30 42 1 41 17
M  V30 43 1 42 19
M  V30 44 1 43 19
M  V30 45 1 44 20
M  V30 46 1 45 20
M  V30 END BOND
M  V30 END CTAB
M  END
>  <i_epik_Tot_Q>  (1) 
1

>  <i_epik_Tot_abs_Q>  (1) 
1

>  <i_i_glide_confnum>  (1) 
392

>  <i_i_glide_lignum>  (1) 
73

>  <i_i_glide_posenum>  (1) 
280

>  <i_i_glide_rotatable_bonds>  (1) 
9

>  <i_lp_mmshare_version>  (1) 
72125

>  <i_m_source_file_index>  (1) 
43

>  <i_f3d_flags>  (1) 
0

>  <num_sample>  (1) 
100

>  <b_lp_Chiralities_Consistent>  (1) 
1

>  <r_epik_Charging_Adjusted_Penalty>  (1) 
0.40508873970444137

>  <r_epik_Ionization_Penalty>  (1) 
0.2046740673665137

>  <r_epik_Ionization_Penalty_Charging>  (1) 
0.20254436985222068

>  <r_epik_Ionization_Penalty_Neutral>  (1) 
0.0021296975142930212

>  <r_epik_State_Penalty>  (1) 
0.20254436985222066

>  <r_glide_ring_energy>  (1) 
0.0014600404397044581

>  <r_i_docking_score>  (1) 
-3.3770000599944523

>  <r_i_glide_ecoul>  (1) 
-3.1105586462016972

>  <r_i_glide_eff_state_penalty>  (1) 
0.20254436985222066

>  <r_i_glide_einternal>  (1) 
22.585641088269188

>  <r_i_glide_emodel>  (1) 
-27.740556035867129

>  <r_i_glide_emodel_strain>  (1) 
3.0612839983915521

>  <r_i_glide_energy>  (1) 
-31.093063615947077

>  <r_i_glide_erotb>  (1) 
1.1222905180223397

>  <r_i_glide_esite>  (1) 
0

>  <r_i_glide_evdw>  (1) 
-27.982504969745381

>  <r_i_glide_gscore>  (1) 
-3.5795444298466728

>  <r_i_glide_gscore_strain>  (1) 
0

>  <r_i_glide_hbond>  (1) 
0

>  <r_i_glide_ligand_efficiency>  (1) 
-0.15350000272702055

>  <r_i_glide_ligand_efficiency_ln>  (1) 
-0.82546199373274409

>  <r_i_glide_ligand_efficiency_sa>  (1) 
-0.43011304489682084

>  <r_i_glide_lipo>  (1) 
-1.2151151063981236

>  <r_i_glide_metal>  (1) 
-0

>  <r_i_glide_rewards>  (1) 
-1.6210107960533655

>  <r_lp_Energy>  (1) 
15.805226999999999

>  <s_epik_Chemistry_Notes>  (1) 
This compound has an ester and may undergo hydrolysis at high or low pH. This compound has an imine and may undergo hydrolysis. This compound contains an acetal/aminal-like group ( X-CH(R)-Y where X, Y are N, S, or O) that may be acid/base labile, releasing an aldehyde.

>  <s_epik_cmdline>  (1) 
J2VwaWtfcHl0aG9uJywgJy1waHQnLCAnMS4wJywgJy1waCcsICc3LjQnLCAnLXRuJywgJzgnLCAnLW1hJywgJzUwMCcsICctaW1hZScsICc8aW5maWxlLm1hZT4nLCAnLW9tYWUnLCAnPG91dGZpbGUubWFlPic=

>  <s_epik_input>  (1) 
W0NIMl0xW0NIMl1DKFtDSDNdKT1OQyg9TylbQ0BIXTFPW0NAQEhdKE9bQ0gzXSlOKFtOSF1DKD1PKU9bQ0gzXSlbQ0gyXVtDQEBIXTJbQ0gyXVtOSF0y

>  <s_glide_docking_method>  (1) 
confgen

>  <s_i_glide_gridfile>  (1) 
gpcr_drd2_6luq_protein_autoprepared_prepared

>  <s_lp_Force_Field>  (1) 
S-OPLS

>  <s_lp_Variant>  (1) 
DiffSBDD_42_num_sample_100-1

>  <s_m_source_file>  (1) 
generated__ligand_DiffSBDD_2026-05-06_prepared.sdf

>  <GenAI_Model>  (1) 
DiffSBDD

>  <Protein>  (1) 
generic_title2

$$$$
DiffSBDD_12_num_sample_100
     RDKit          3D

  0  0  0  0  0  0  0  0  0  0999 V3000
M  V30 BEGIN CTAB
M  V30 COUNTS 67 71 0 0 1
M  V30 BEGIN ATOM
M  V30 1 C 6.248128 5.329414 -18.231114 0
M  V30 2 C 7.168879 5.389773 -17.121783 0
M  V30 3 F 6.715966 2.355702 -21.005793 0
M  V30 4 O 9.834834 7.766847 -12.291632 0
M  V30 5 C 11.736656 6.745330 -3.757588 0
M  V30 6 C 9.292416 4.682605 -15.990840 0
M  V30 7 C 8.596344 4.892304 -17.312766 0 CFG=1
M  V30 8 F 8.621795 3.248993 -21.499524 0
M  V30 9 C 11.834626 6.735202 -7.142457 0
M  V30 10 C 5.966197 7.067600 -13.232973 0
M  V30 11 C 7.898225 2.725858 -20.511401 0
M  V30 12 C 7.892387 4.564439 -9.765753 0 CFG=1
M  V30 13 C 12.362720 7.968114 -7.869408 0
M  V30 14 C 11.956671 9.173779 -7.037384 0
M  V30 15 C 10.744103 6.366486 -4.874742 0
M  V30 16 C 7.730788 3.745469 -19.392647 0
M  V30 17 C 6.761144 5.854634 -15.918207 0
M  V30 18 C 8.786949 5.148678 -14.840767 0
M  V30 19 O 6.645918 4.970125 -10.292079 0
M  V30 20 O 7.869886 5.907686 -12.434667 0
M  V30 21 C 9.794761 6.022131 -10.119516 0 CFG=1
M  V30 22 C 10.724477 7.198978 -6.190193 0
M  V30 23 C 7.097221 6.298011 -13.486526 0
M  V30 24 F 8.524520 1.633859 -20.069331 0
M  V30 25 C 9.023766 5.687593 -7.594873 0
M  V30 26 C 11.016448 8.696534 -5.934170 0
M  V30 27 C 8.806480 4.029215 -10.931984 0
M  V30 28 P 8.986372 6.763950 -11.602810 0 CFG=2
M  V30 29 C 8.738034 5.680077 -9.118346 0 CFG=2
M  V30 30 C 9.376226 7.074751 -6.969801 0
M  V30 31 O 5.434930 7.519636 -12.198224 0 CHG=-1
M  V30 32 C 6.516201 4.569271 -19.309074 0
M  V30 33 C 8.683650 3.877949 -18.437505 0
M  V30 34 N 7.567327 5.831055 -14.757446 0
M  V30 35 C 9.774986 5.146559 -11.286000 0 CFG=1
M  V30 36 H 5.319097 5.879875 -18.185926 0
M  V30 37 H 11.865063 5.927323 -3.047931 0
M  V30 38 H 12.708052 6.973555 -4.168296 0
M  V30 39 H 11.435034 7.621316 -3.186681 0
M  V30 40 H 10.241302 4.167419 -16.003538 0
M  V30 41 H 9.134582 5.745195 -17.724030 0
M  V30 42 H 12.619805 6.169254 -6.641149 0
M  V30 43 H 11.467003 6.040315 -7.885195 0
M  V30 44 H 5.533996 7.262483 -14.216019 0
M  V30 45 H 7.516108 3.862033 -9.019474 0
M  V30 46 H 13.434590 7.922405 -8.041700 0
M  V30 47 H 11.895297 8.060697 -8.847293 0
M  V30 48 H 12.828033 9.681990 -6.623445 0
M  V30 49 H 11.438748 9.863555 -7.687368 0
M  V30 50 H 9.758736 6.278962 -4.437583 0
M  V30 51 H 11.028156 5.369298 -5.150794 0
M  V30 52 H 5.759054 6.196333 -15.770140 0
M  V30 53 H 9.297120 5.022098 -13.902051 0
M  V30 54 H 6.759219 5.688976 -10.904930 0
M  V30 55 H 10.676536 6.569308 -9.816719 0
M  V30 56 H 8.117339 5.345271 -7.095539 0
M  V30 57 H 9.786140 4.969360 -7.365703 0
M  V30 58 H 10.102619 9.291808 -5.906520 0
M  V30 59 H 11.511506 8.893012 -4.986714 0
M  V30 60 H 9.435259 3.188332 -10.662364 0
M  V30 61 H 8.244340 3.686324 -11.801518 0
M  V30 62 H 8.234827 6.569294 -9.176586 0
M  V30 63 H 9.369332 7.822246 -7.766671 0
M  V30 64 H 8.559370 7.382041 -6.316692 0
M  V30 65 H 5.795788 4.528957 -20.113961 0
M  V30 66 H 9.574301 3.267420 -18.475855 0
M  V30 67 H 10.637442 4.910407 -11.891610 0
M  V30 END ATOM
M  V30 BEGIN BOND
M  V30 1 1 2 1
M  V30 2 1 7 2
M  V30 3 1 7 6
M  V30 4 1 11 3
M  V30 5 1 11 8
M  V30 6 1 13 9
M  V30 7 1 14 13
M  V30 8 1 15 5
M  V30 9 1 16 11
M  V30 10 2 17 2
M  V30 11 2 18 6
M  V30 12 1 19 12
M  V30 13 1 22 9
M  V30 14 1 22 15
M  V30 15 2 23 10
M  V30 16 1 23 20
M  V30 17 1 24 11
M  V30 18 1 26 14
M  V30 19 1 26 22
M  V30 20 1 27 12
M  V30 21 2 28 4
M  V30 22 1 28 20 CFG=3
M  V30 23 1 28 21
M  V30 24 1 29 12
M  V30 25 1 29 21
M  V30 26 1 29 25
M  V30 27 1 30 22
M  V30 28 1 30 25
M  V30 29 1 31 10
M  V30 30 2 32 1
M  V30 31 1 32 16
M  V30 32 1 33 7
M  V30 33 2 33 16
M  V30 34 1 34 17
M  V30 35 1 34 18
M  V30 36 1 34 23
M  V30 37 1 35 21
M  V30 38 1 35 27
M  V30 39 1 35 28
M  V30 40 1 36 1
M  V30 41 1 37 5
M  V30 42 1 38 5
M  V30 43 1 39 5
M  V30 44 1 40 6
M  V30 45 1 7 41 CFG=3
M  V30 46 1 42 9
M  V30 47 1 43 9
M  V30 48 1 44 10
M  V30 49 1 12 45 CFG=1
M  V30 50 1 46 13
M  V30 51 1 47 13
M  V30 52 1 48 14
M  V30 53 1 49 14
M  V30 54 1 50 15
M  V30 55 1 51 15
M  V30 56 1 52 17
M  V30 57 1 53 18
M  V30 58 1 54 19
M  V30 59 1 21 55 CFG=1
M  V30 60 1 56 25
M  V30 61 1 57 25
M  V30 62 1 58 26
M  V30 63 1 59 26
M  V30 64 1 60 27
M  V30 65 1 61 27
M  V30 66 1 29 62 CFG=1
M  V30 67 1 63 30
M  V30 68 1 64 30
M  V30 69 1 65 32
M  V30 70 1 66 33
M  V30 71 1 35 67 CFG=3
M  V30 END BOND
M  V30 END CTAB
M  END
>  <i_epik_Tot_Q>  (1) 
-1

>  <i_epik_Tot_abs_Q>  (1) 
1

>  <i_i_glide_confnum>  (1) 
82

>  <i_i_glide_lignum>  (1) 
20

>  <i_i_glide_posenum>  (1) 
364

>  <i_i_glide_rotatable_bonds>  (1) 
9

>  <i_lp_mmshare_version>  (1) 
72125

>  <i_m_source_file_index>  (1) 
13

>  <i_f3d_flags>  (1) 
0

>  <num_sample>  (1) 
100

>  <b_lp_Chiralities_Consistent>  (1) 
1

>  <r_epik_Charging_Adjusted_Penalty>  (1) 
6.0913929175536644e-07

>  <r_epik_Ionization_Penalty>  (1) 
7.5242037030438095e-07

>  <r_epik_Ionization_Penalty_Charging>  (1) 
6.0913929175536644e-07

>  <r_epik_Ionization_Penalty_Neutral>  (1) 
1.4328107854901448e-07

>  <r_epik_State_Penalty>  (1) 
-0

>  <r_glide_ring_energy>  (1) 
0.00028320506983768638

>  <r_i_docking_score>  (1) 
-3.3724244615427681

>  <r_i_glide_ecoul>  (1) 
-1.0726051871451228

>  <r_i_glide_eff_state_penalty>  (1) 
-0

>  <r_i_glide_einternal>  (1) 
10.446471848069127

>  <r_i_glide_emodel>  (1) 
-15.259333767254581

>  <r_i_glide_emodel_strain>  (1) 
6.1536809480421368

>  <r_i_glide_energy>  (1) 
-21.538405810575277

>  <r_i_glide_erotb>  (1) 
0.47163652173243925

>  <r_i_glide_esite>  (1) 
-0.052687467297566508

>  <r_i_glide_evdw>  (1) 
-20.465800623430155

>  <r_i_glide_gscore>  (1) 
-3.3724244615427681

>  <r_i_glide_gscore_strain>  (1) 
0.53842023701053421

>  <r_i_glide_hbond>  (1) 
0

>  <r_i_glide_ligand_efficiency>  (1) 
-0.096354984615507663

>  <r_i_glide_ligand_efficiency_ln>  (1) 
-0.74032201623691574

>  <r_i_glide_ligand_efficiency_sa>  (1) 
-0.31518354399452703

>  <r_i_glide_lipo>  (1) 
-2.4115980970706792

>  <r_i_glide_metal>  (1) 
-0

>  <r_i_glide_rewards>  (1) 
-0.73401484667421946

>  <r_lp_Energy>  (1) 
62.944064999999995

>  <r_lp_tautomer_probability>  (1) 
1

>  <s_epik_Chemistry_Notes>  (1) 
This compound has an imine and may undergo hydrolysis.

>  <s_epik_cmdline>  (1) 
J2VwaWtfcHl0aG9uJywgJy1waHQnLCAnMS4wJywgJy1waCcsICc3LjQnLCAnLXRuJywgJzgnLCAnLW1hJywgJzUwMCcsICctaW1hZScsICc8aW5maWxlLm1hZT4nLCAnLW9tYWUnLCAnPG91dGZpbGUubWFlPic=

>  <s_epik_input>  (1) 
W0NIXTE9W0NIXUMoQyhGKShGKUYpPVtDSF1bQ0BASF0oQzE9MilbQ0hdPVtDSF1OKFtDSF0yKVtDQEBIXShbQ0hdPU8pT1tQQF0zKD1PKVtDQEBIXShbQ0BASF0zNClbQ0gyXVtDQEhdKFtPSF0pW0NASF00W0NIMl1bQ0gyXUM1KFtDSDJdW0NIM10pW0NIMl1bQ0gyXVtDSDJdW0NIMl01

>  <s_glide_docking_method>  (1) 
confgen

>  <s_i_glide_gridfile>  (1) 
gpcr_drd2_6luq_protein_autoprepared_prepared

>  <s_lp_Force_Field>  (1) 
S-OPLS

>  <s_lp_Variant>  (1) 
DiffSBDD_12_num_sample_100-1

>  <s_m_source_file>  (1) 
generated__ligand_DiffSBDD_2026-05-06_prepared.sdf

>  <GenAI_Model>  (1) 
DiffSBDD

>  <Protein>  (1) 
generic_title2

$$$$
DiffSBDD_55_num_sample_100
     RDKit          3D

  0  0  0  0  0  0  0  0  0  0999 V3000
M  V30 BEGIN CTAB
M  V30 COUNTS 50 53 0 0 1
M  V30 BEGIN ATOM
M  V30 1 O 9.825561 6.664188 -6.845100 0
M  V30 2 C 6.064423 6.285202 -17.600167 0
M  V30 3 C 8.896665 4.570849 -10.713310 0
M  V30 4 C 6.386170 5.858714 -11.953320 0
M  V30 5 C 10.226314 7.144818 -10.576355 0 CFG=2
M  V30 6 C 9.863810 6.446893 -9.258436 0 CFG=1
M  V30 7 S 8.244769 4.674846 -17.393878 0
M  V30 8 C 7.365157 5.948500 -18.338643 0
M  V30 9 C 6.300881 5.963105 -16.131999 0
M  V30 10 C 11.767293 7.953051 -7.175195 0
M  V30 11 N 8.882966 5.398475 -11.916436 0
M  V30 12 C 9.640044 7.404482 -8.054317 0 CFG=2
M  V30 13 C 8.735734 5.397033 -9.426250 0 CFG=2
M  V30 14 C 10.616966 8.569177 -7.916914 0
M  V30 15 C 11.034790 7.042181 -6.194059 0
M  V30 16 C 7.391441 4.075597 -14.825064 0
M  V30 17 C 7.664204 5.490817 -12.731432 0 CFG=1
M  V30 18 C 7.598667 5.230722 -15.798524 0 CFG=1
M  V30 19 C 9.249377 7.894894 -11.449335 0
M  V30 20 O 5.489988 6.278012 -15.263809 0
M  V30 21 O 8.761035 4.569302 -8.291674 0
M  V30 22 C 7.425903 4.188742 -13.481090 0
M  V30 23 C 9.771862 6.555024 -11.901570 0 CFG=1
M  V30 24 H 5.781644 7.329765 -17.733183 0
M  V30 25 H 5.245671 5.662897 -17.961660 0
M  V30 26 H 9.834838 4.023655 -10.669238 0
M  V30 27 H 8.118856 3.812484 -10.772399 0
M  V30 28 H 5.521779 5.888492 -12.616207 0
M  V30 29 H 6.161658 5.135549 -11.169266 0
M  V30 30 H 6.451878 6.840358 -11.491661 0
M  V30 31 H 11.237412 7.546656 -10.575564 0
M  V30 32 H 10.753869 5.877930 -9.007964 0
M  V30 33 H 7.996698 6.834623 -18.405467 0
M  V30 34 H 7.176408 5.603765 -19.355413 0
M  V30 35 H 12.395960 8.698306 -6.689355 0
M  V30 36 H 12.385828 7.369335 -7.856574 0
M  V30 37 H 8.634851 7.807316 -8.067810 0
M  V30 38 H 7.752227 5.843899 -9.438642 0
M  V30 39 H 10.899045 9.049519 -8.852512 0
M  V30 40 H 10.161954 9.324371 -7.273886 0
M  V30 41 H 10.781107 7.584380 -5.282323 0
M  V30 42 H 11.625166 6.168773 -5.916236 0
M  V30 43 H 7.207022 3.107058 -15.266401 0
M  V30 44 H 7.812945 6.286847 -13.457039 0
M  V30 45 H 8.305748 5.954146 -15.395856 0
M  V30 46 H 9.600249 8.753314 -12.011669 0
M  V30 47 H 8.234837 7.980075 -11.091667 0
M  V30 48 H 8.802957 5.143998 -7.536662 0
M  V30 49 H 7.271712 3.308575 -12.874623 0
M  V30 50 H 10.475457 6.535566 -12.731433 0
M  V30 END ATOM
M  V30 BEGIN BOND
M  V30 1 1 6 5
M  V30 2 1 8 2
M  V30 3 1 8 7
M  V30 4 1 9 2
M  V30 5 1 11 3
M  V30 6 1 12 1
M  V30 7 1 12 6
M  V30 8 1 13 3
M  V30 9 1 13 6
M  V30 10 1 14 10
M  V30 11 1 14 12
M  V30 12 1 15 1
M  V30 13 1 15 10
M  V30 14 1 17 4
M  V30 15 1 17 11
M  V30 16 1 18 7
M  V30 17 1 18 9
M  V30 18 1 18 16
M  V30 19 1 19 5
M  V30 20 2 20 9
M  V30 21 1 21 13
M  V30 22 2 22 16
M  V30 23 1 22 17
M  V30 24 1 23 5
M  V30 25 1 23 11
M  V30 26 1 23 19
M  V30 27 1 24 2
M  V30 28 1 25 2
M  V30 29 1 26 3
M  V30 30 1 27 3
M  V30 31 1 28 4
M  V30 32 1 29 4
M  V30 33 1 30 4
M  V30 34 1 5 31 CFG=3
M  V30 35 1 6 32 CFG=1
M  V30 36 1 33 8
M  V30 37 1 34 8
M  V30 38 1 35 10
M  V30 39 1 36 10
M  V30 40 1 12 37 CFG=1
M  V30 41 1 13 38 CFG=3
M  V30 42 1 39 14
M  V30 43 1 40 14
M  V30 44 1 41 15
M  V30 45 1 42 15
M  V30 46 1 43 16
M  V30 47 1 17 44 CFG=3
M  V30 48 1 18 45 CFG=1
M  V30 49 1 46 19
M  V30 50 1 47 19
M  V30 51 1 48 21
M  V30 52 1 49 22
M  V30 53 1 23 50 CFG=3
M  V30 END BOND
M  V30 END CTAB
M  END
>  <i_epik_Tot_Q>  (1) 
0

>  <i_epik_Tot_abs_Q>  (1) 
0

>  <i_i_glide_confnum>  (1) 
86

>  <i_i_glide_lignum>  (1) 
109

>  <i_i_glide_posenum>  (1) 
91

>  <i_i_glide_rotatable_bonds>  (1) 
5

>  <i_lp_mmshare_version>  (1) 
72125

>  <i_m_source_file_index>  (1) 
56

>  <i_f3d_flags>  (1) 
0

>  <num_sample>  (1) 
100

>  <b_lp_Chiralities_Consistent>  (1) 
1

>  <r_epik_Charging_Adjusted_Penalty>  (1) 
1.1351003249830234

>  <r_epik_Ionization_Penalty>  (1) 
1.13510036387319

>  <r_epik_Ionization_Penalty_Charging>  (1) 
0

>  <r_epik_Ionization_Penalty_Neutral>  (1) 
1.13510036387319

>  <r_epik_State_Penalty>  (1) 
1.1351003249830234

>  <r_glide_ring_energy>  (1) 
1.1829721722469726

>  <r_i_docking_score>  (1) 
-3.355870556546817

>  <r_i_glide_ecoul>  (1) 
-0.13537494269549644

>  <r_i_glide_eff_state_penalty>  (1) 
1.1351003249830234

>  <r_i_glide_einternal>  (1) 
8.8483676435015539

>  <r_i_glide_emodel>  (1) 
-32.161679254128472

>  <r_i_glide_emodel_strain>  (1) 
0.4634471767038093

>  <r_i_glide_energy>  (1) 
-29.583163925595542

>  <r_i_glide_erotb>  (1) 
0.4978175189556282

>  <r_i_glide_esite>  (1) 
0

>  <r_i_glide_evdw>  (1) 
-29.447788982900047

>  <r_i_glide_gscore>  (1) 
-4.4909708815298401

>  <r_i_glide_gscore_strain>  (1) 
0

>  <r_i_glide_hbond>  (1) 
0

>  <r_i_glide_ligand_efficiency>  (1) 
-0.14590741550203551

>  <r_i_glide_ligand_efficiency_ln>  (1) 
-0.81147992992485196

>  <r_i_glide_ligand_efficiency_sa>  (1) 
-0.41494128106172129

>  <r_i_glide_lipo>  (1) 
-1.35837318126411

>  <r_i_glide_metal>  (1) 
-0

>  <r_i_glide_rewards>  (1) 
-2.1377195286720307

>  <r_lp_Energy>  (1) 
16.200793000000001

>  <r_lp_tautomer_probability>  (1) 
0.99995000000000001

>  <s_epik_cmdline>  (1) 
J2VwaWtfcHl0aG9uJywgJy1waHQnLCAnMS4wJywgJy1waCcsICc3LjQnLCAnLXRuJywgJzgnLCAnLW1hJywgJzUwMCcsICctaW1hZScsICc8aW5maWxlLm1hZT4nLCAnLW9tYWUnLCAnPG91dGZpbGUubWFlPic=

>  <s_epik_input>  (1) 
W0NIMl0xW0NIMl1bQ0gyXU9bQ0BASF0xW0NASF0yW0NASF0oW09IXSlbQ0gyXU4oW0NASF0oW0NASF0yMylbQ0gyXTMpW0NASF0oW0NIM10pL1tDSF09W0NIXVxbQ0BIXTRTW0NIMl1bQ0gyXUM0PU8=

>  <s_glide_docking_method>  (1) 
confgen

>  <s_i_glide_gridfile>  (1) 
gpcr_drd2_6luq_protein_autoprepared_prepared

>  <s_lp_Force_Field>  (1) 
S-OPLS

>  <s_lp_Variant>  (1) 
DiffSBDD_55_num_sample_100-10

>  <s_m_source_file>  (1) 
generated__ligand_DiffSBDD_2026-05-06_prepared.sdf

>  <GenAI_Model>  (1) 
DiffSBDD

>  <Protein>  (1) 
generic_title2

$$$$
DiffSBDD_80_num_sample_100
     RDKit          3D

  0  0  0  0  0  0  0  0  0  0999 V3000
M  V30 BEGIN CTAB
M  V30 COUNTS 57 60 0 0 1
M  V30 BEGIN ATOM
M  V30 1 C 8.290176 4.063583 -14.011822 0
M  V30 2 C 10.015108 3.232933 -18.159772 0
M  V30 3 O 8.264426 1.061791 -13.505788 0
M  V30 4 C 11.950643 6.594256 -18.770549 0
M  V30 5 C 7.190530 1.013709 -14.094774 0
M  V30 6 C 12.471949 3.931390 -17.820888 0
M  V30 7 C 6.657840 2.199585 -14.913570 0
M  V30 8 C 6.317658 -0.230680 -14.042229 0
M  V30 9 C 9.053781 1.452679 -17.032235 0
M  V30 10 C 8.131419 3.639961 -16.661367 0 CFG=2
M  V30 11 C 13.612332 4.813733 -18.296588 0 CFG=1
M  V30 12 O 17.483292 9.369303 -17.491676 0 CHG=-1
M  V30 13 C 14.309707 7.161716 -18.508474 0
M  V30 14 C 8.421341 5.138006 -16.898044 0
M  V30 15 C 13.228217 6.241771 -18.543187 0
M  V30 16 C 15.434739 9.424690 -18.729616 0
M  V30 17 C 10.847960 5.631965 -18.655863 0
M  V30 18 F 15.146422 10.330764 -17.789534 0
M  V30 19 C 11.079093 4.348688 -18.196569 0
M  V30 20 C 7.395490 4.468882 -12.829850 0
M  V30 21 C 14.235119 8.469513 -18.823967 0
M  V30 22 C 15.511364 6.581082 -18.067031 0
M  V30 23 C 7.497467 3.477596 -15.216954 0 CFG=2
M  V30 24 O 12.722475 2.898160 -17.202194 0
M  V30 25 S 15.355705 4.875907 -17.567228 0
M  V30 26 N 9.367539 2.874385 -16.896491 0
M  V30 27 F 15.544310 10.095778 -19.877411 0
M  V30 28 C 9.498186 6.061424 -19.020721 0
M  V30 29 C 8.394791 5.769298 -18.291924 0
M  V30 30 C 16.678425 7.261275 -18.009783 0
M  V30 31 C 16.839328 8.731554 -18.438009 0 CFG=2
M  V30 32 H 9.034837 3.369351 -13.640069 0
M  V30 33 H 8.855137 4.945454 -14.306489 0
M  V30 34 H 9.258502 3.399903 -18.926948 0
M  V30 35 H 10.556192 2.368430 -18.549219 0
M  V30 36 H 11.712007 7.626672 -18.969449 0
M  V30 37 H 6.234838 1.812199 -15.839735 0
M  V30 38 H 5.834839 2.534422 -14.291665 0
M  V30 39 H 5.276298 0.038090 -13.866503 0
M  V30 40 H 6.634838 -0.895625 -13.239533 0
M  V30 41 H 6.376896 -0.772342 -14.985626 0
M  V30 42 H 8.666641 1.032250 -16.117459 0
M  V30 43 H 9.951960 0.872158 -17.247556 0
M  V30 44 H 8.332341 1.269014 -17.829971 0
M  V30 45 H 7.381010 3.333795 -17.392288 0
M  V30 46 H 13.793628 4.427997 -19.299894 0
M  V30 47 H 7.684687 5.737349 -16.363107 0
M  V30 48 H 9.358998 5.409357 -16.411513 0
M  V30 49 H 7.992817 4.901576 -12.026964 0
M  V30 50 H 6.865738 3.611896 -12.413843 0
M  V30 51 H 6.656579 5.213971 -13.125628 0
M  V30 52 H 13.304201 8.901587 -19.150245 0
M  V30 53 H 6.670770 4.184891 -15.293939 0
M  V30 54 H 9.372524 6.625266 -19.933853 0
M  V30 55 H 7.428892 6.099527 -18.645243 0
M  V30 56 H 17.568823 6.762736 -17.655699 0
M  V30 57 H 17.303909 8.609270 -19.417486 0
M  V30 END ATOM
M  V30 BEGIN BOND
M  V30 1 2 5 3
M  V30 2 1 7 5
M  V30 3 1 8 5
M  V30 4 1 11 6
M  V30 5 1 14 10
M  V30 6 2 15 4
M  V30 7 1 15 11
M  V30 8 1 15 13
M  V30 9 1 17 4
M  V30 10 1 18 16
M  V30 11 1 19 2
M  V30 12 1 19 6
M  V30 13 2 19 17
M  V30 14 1 20 1
M  V30 15 2 21 13
M  V30 16 1 21 16
M  V30 17 1 22 13
M  V30 18 1 23 1
M  V30 19 1 23 7
M  V30 20 1 23 10
M  V30 21 2 24 6
M  V30 22 1 25 11
M  V30 23 1 25 22
M  V30 24 1 26 2
M  V30 25 1 26 9
M  V30 26 1 26 10
M  V30 27 1 27 16
M  V30 28 1 28 17
M  V30 29 1 29 14
M  V30 30 2 29 28
M  V30 31 2 30 22
M  V30 32 1 31 12
M  V30 33 1 31 16
M  V30 34 1 31 30
M  V30 35 1 32 1
M  V30 36 1 33 1
M  V30 37 1 34 2
M  V30 38 1 35 2
M  V30 39 1 36 4
M  V30 40 1 37 7
M  V30 41 1 38 7
M  V30 42 1 39 8
M  V30 43 1 40 8
M  V30 44 1 41 8
M  V30 45 1 42 9
M  V30 46 1 43 9
M  V30 47 1 44 9
M  V30 48 1 10 45 CFG=3
M  V30 49 1 11 46 CFG=3
M  V30 50 1 47 14
M  V30 51 1 48 14
M  V30 52 1 49 20
M  V30 53 1 50 20
M  V30 54 1 51 20
M  V30 55 1 52 21
M  V30 56 1 23 53 CFG=3
M  V30 57 1 54 28
M  V30 58 1 55 29
M  V30 59 1 56 30
M  V30 60 1 31 57 CFG=3
M  V30 END BOND
M  V30 END CTAB
M  END
>  <i_epik_Tot_Q>  (1) 
-1

>  <i_epik_Tot_abs_Q>  (1) 
1

>  <i_i_glide_confnum>  (1) 
3

>  <i_i_glide_lignum>  (1) 
162

>  <i_i_glide_posenum>  (1) 
86

>  <i_i_glide_rotatable_bonds>  (1) 
4

>  <i_lp_mmshare_version>  (1) 
72125

>  <i_m_source_file_index>  (1) 
81

>  <i_f3d_flags>  (1) 
0

>  <num_sample>  (1) 
100

>  <b_lp_Chiralities_Consistent>  (1) 
1

>  <r_epik_Charging_Adjusted_Penalty>  (1) 
8.7803366933407872e-06

>  <r_epik_Ionization_Penalty>  (1) 
0.00048743314384941063

>  <r_epik_Ionization_Penalty_Charging>  (1) 
8.7803366933407872e-06

>  <r_epik_Ionization_Penalty_Neutral>  (1) 
0.00047865280715606983

>  <r_epik_State_Penalty>  (1) 
-0

>  <r_glide_ring_energy>  (1) 
0

>  <r_i_docking_score>  (1) 
-3.3552807304022223

>  <r_i_glide_ecoul>  (1) 
0.85518584741443848

>  <r_i_glide_eff_state_penalty>  (1) 
-0

>  <r_i_glide_einternal>  (1) 
7.1877591450599967

>  <r_i_glide_emodel>  (1) 
-27.651487105328162

>  <r_i_glide_emodel_strain>  (1) 
0.28035962319398777

>  <r_i_glide_energy>  (1) 
-28.084301568612702

>  <r_i_glide_erotb>  (1) 
0.20077648214602295

>  <r_i_glide_esite>  (1) 
0

>  <r_i_glide_evdw>  (1) 
-28.939487416027141

>  <r_i_glide_gscore>  (1) 
-3.3552807304022223

>  <r_i_glide_gscore_strain>  (1) 
0

>  <r_i_glide_hbond>  (1) 
0

>  <r_i_glide_ligand_efficiency>  (1) 
-0.10823486227103943

>  <r_i_glide_ligand_efficiency_ln>  (1) 
-0.75671863171103171

>  <r_i_glide_ligand_efficiency_sa>  (1) 
-0.34000690225249047

>  <r_i_glide_lipo>  (1) 
-1.3083776163073202

>  <r_i_glide_metal>  (1) 
-0

>  <r_i_glide_rewards>  (1) 
-0.928983102551733

>  <r_lp_Energy>  (1) 
52.707561999999996

>  <r_lp_tautomer_probability>  (1) 
1

>  <s_epik_cmdline>  (1) 
J2VwaWtfcHl0aG9uJywgJy1waHQnLCAnMS4wJywgJy1waCcsICc3LjQnLCAnLXRuJywgJzgnLCAnLW1hJywgJzUwMCcsICctaW1hZScsICc8aW5maWxlLm1hZT4nLCAnLW9tYWUnLCAnPG91dGZpbGUubWFlPic=

>  <s_epik_input>  (1) 
Tz1DKFtDSDNdKVtDSDJdW0NAQEhdKFtDSDJdW0NIM10pW0NAQEhdKFtDSDJdL1tDSF09W0NIXVwxKU4oW0NIM10pW0NIMl1DKEMyPU8pPUMxW0NIXT1DKFtDQEhdMjMpQz00QyhTMyk9W0NIXVtDQEhdKFtPSF0pQyhGKShGKVtDSF00

>  <s_glide_docking_method>  (1) 
confgen

>  <s_i_glide_gridfile>  (1) 
gpcr_drd2_6luq_protein_autoprepared_prepared

>  <s_lp_Force_Field>  (1) 
S-OPLS

>  <s_lp_Variant>  (1) 
DiffSBDD_80_num_sample_100-1

>  <s_m_source_file>  (1) 
generated__ligand_DiffSBDD_2026-05-06_prepared.sdf

>  <GenAI_Model>  (1) 
DiffSBDD

>  <Protein>  (1) 
generic_title2

$$$$
DiffSBDD_80_num_sample_100
     RDKit          3D

  0  0  0  0  0  0  0  0  0  0999 V3000
M  V30 BEGIN CTAB
M  V30 COUNTS 57 60 0 0 1
M  V30 BEGIN ATOM
M  V30 1 C 14.716768 6.753891 -21.352590 0
M  V30 2 C 9.968623 5.461125 -20.478331 0
M  V30 3 O 13.855395 7.567304 -17.544317 0
M  V30 4 C 9.161547 3.886994 -16.980374 0
M  V30 5 C 14.238928 8.195444 -18.528531 0
M  V30 6 C 8.184004 5.969908 -18.707885 0
M  V30 7 C 13.351874 8.368353 -19.765582 0
M  V30 8 C 15.615761 8.847586 -18.562775 0
M  V30 9 C 10.534303 7.314520 -21.822842 0
M  V30 10 C 12.270187 6.091042 -20.591993 0 CFG=2
M  V30 11 C 7.344154 5.475601 -17.543719 0 CFG=1
M  V30 12 O 5.836847 4.969399 -11.697373 0 CHG=-1
M  V30 13 C 7.442605 4.403281 -15.340617 0
M  V30 14 C 12.462937 5.372543 -19.246739 0
M  V30 15 C 8.043289 4.532233 -16.616254 0
M  V30 16 C 7.127270 3.441005 -13.016601 0
M  V30 17 C 9.843604 4.162894 -18.244618 0
M  V30 18 F 8.059254 3.769386 -12.116948 0
M  V30 19 C 9.390805 5.164008 -19.085391 0
M  V30 20 C 15.500404 5.704447 -20.547951 0
M  V30 21 C 7.789224 3.504332 -14.399163 0
M  V30 22 C 6.437710 5.353728 -15.109904 0
M  V30 23 C 13.331868 7.226652 -20.825433 0 CFG=2
M  V30 24 O 7.827292 6.969298 -19.326576 0
M  V30 25 S 6.234823 6.534116 -16.432312 0
M  V30 26 N 10.883142 6.597007 -20.594428 0
M  V30 27 F 6.776398 2.179184 -12.761803 0
M  V30 28 C 11.025410 3.366406 -18.583917 0
M  V30 29 C 12.164138 3.880213 -19.107187 0
M  V30 30 C 5.697659 5.375164 -13.981122 0
M  V30 31 C 5.834851 4.346660 -12.846311 0 CFG=2
M  V30 32 H 14.573383 6.344443 -22.353605 0
M  V30 33 H 15.351662 7.628543 -21.497058 0
M  V30 34 H 10.399924 4.559861 -20.914891 0
M  V30 35 H 9.092733 5.620584 -21.109773 0
M  V30 36 H 9.624333 3.204519 -16.291676 0
M  V30 37 H 12.335117 8.569297 -19.426988 0
M  V30 38 H 13.682129 9.285281 -20.254271 0
M  V30 39 H 16.105862 8.665201 -19.518271 0
M  V30 40 H 16.245529 8.445772 -17.769090 0
M  V30 41 H 15.521584 9.924195 -18.420092 0
M  V30 42 H 11.035703 8.278917 -21.887641 0
M  V30 43 H 9.469401 7.550900 -21.845027 0
M  V30 44 H 10.771875 6.729743 -22.712605 0
M  V30 45 H 12.386723 5.370737 -21.403553 0
M  V30 46 H 6.621026 4.833549 -18.047262 0
M  V30 47 H 13.500402 5.438179 -18.939042 0
M  V30 48 H 11.948515 5.919318 -18.454496 0
M  V30 49 H 16.467193 5.517244 -21.015666 0
M  V30 50 H 14.975101 4.750106 -20.519185 0
M  V30 51 H 15.696904 6.021287 -19.525051 0
M  V30 52 H 8.567043 2.789161 -14.587585 0
M  V30 53 H 13.006670 7.757844 -21.715397 0
M  V30 54 H 10.980587 2.299638 -18.418591 0
M  V30 55 H 12.977025 3.211428 -19.348988 0
M  V30 56 H 4.944636 6.134127 -13.854010 0
M  V30 57 H 5.002058 3.686689 -13.091581 0
M  V30 END ATOM
M  V30 BEGIN BOND
M  V30 1 2 5 3
M  V30 2 1 7 5
M  V30 3 1 8 5
M  V30 4 1 11 6
M  V30 5 1 14 10
M  V30 6 2 15 4
M  V30 7 1 15 11
M  V30 8 1 15 13
M  V30 9 1 17 4
M  V30 10 1 18 16
M  V30 11 1 19 2
M  V30 12 1 19 6
M  V30 13 2 19 17
M  V30 14 1 20 1
M  V30 15 2 21 13
M  V30 16 1 21 16
M  V30 17 1 22 13
M  V30 18 1 23 1
M  V30 19 1 23 7
M  V30 20 1 23 10
M  V30 21 2 24 6
M  V30 22 1 25 11
M  V30 23 1 25 22
M  V30 24 1 26 2
M  V30 25 1 26 9
M  V30 26 1 26 10
M  V30 27 1 27 16
M  V30 28 1 28 17
M  V30 29 1 29 14
M  V30 30 2 29 28
M  V30 31 2 30 22
M  V30 32 1 31 12
M  V30 33 1 31 16
M  V30 34 1 31 30
M  V30 35 1 32 1
M  V30 36 1 33 1
M  V30 37 1 34 2
M  V30 38 1 35 2
M  V30 39 1 36 4
M  V30 40 1 37 7
M  V30 41 1 38 7
M  V30 42 1 39 8
M  V30 43 1 40 8
M  V30 44 1 41 8
M  V30 45 1 42 9
M  V30 46 1 43 9
M  V30 47 1 44 9
M  V30 48 1 10 45 CFG=3
M  V30 49 1 11 46 CFG=3
M  V30 50 1 47 14
M  V30 51 1 48 14
M  V30 52 1 49 20
M  V30 53 1 50 20
M  V30 54 1 51 20
M  V30 55 1 52 21
M  V30 56 1 23 53 CFG=3
M  V30 57 1 54 28
M  V30 58 1 55 29
M  V30 59 1 56 30
M  V30 60 1 31 57 CFG=1
M  V30 END BOND
M  V30 END CTAB
M  END
>  <i_epik_Tot_Q>  (1) 
-1

>  <i_epik_Tot_abs_Q>  (1) 
1

>  <i_i_glide_confnum>  (1) 
3

>  <i_i_glide_lignum>  (1) 
162

>  <i_i_glide_posenum>  (1) 
86

>  <i_i_glide_rotatable_bonds>  (1) 
4

>  <i_lp_mmshare_version>  (1) 
72125

>  <i_m_source_file_index>  (1) 
81

>  <i_f3d_flags>  (1) 
0

>  <num_sample>  (1) 
100

>  <b_lp_Chiralities_Consistent>  (1) 
1

>  <r_epik_Charging_Adjusted_Penalty>  (1) 
8.7803366933407872e-06

>  <r_epik_Ionization_Penalty>  (1) 
0.00048743314384941063

>  <r_epik_Ionization_Penalty_Charging>  (1) 
8.7803366933407872e-06

>  <r_epik_Ionization_Penalty_Neutral>  (1) 
0.00047865280715606983

>  <r_epik_State_Penalty>  (1) 
-0

>  <r_glide_ring_energy>  (1) 
0

>  <r_i_docking_score>  (1) 
-3.3544234862054805

>  <r_i_glide_ecoul>  (1) 
1.8385366083702102

>  <r_i_glide_eff_state_penalty>  (1) 
-0

>  <r_i_glide_einternal>  (1) 
2.9175004934106727

>  <r_i_glide_emodel>  (1) 
-26.297701264139533

>  <r_i_glide_emodel_strain>  (1) 
0

>  <r_i_glide_energy>  (1) 
-24.31590603162369

>  <r_i_glide_erotb>  (1) 
0.20077648214602295

>  <r_i_glide_esite>  (1) 
-0.01976712183521288

>  <r_i_glide_evdw>  (1) 
-26.154442639993899

>  <r_i_glide_gscore>  (1) 
-3.3544234862054805

>  <r_i_glide_gscore_strain>  (1) 
0

>  <r_i_glide_hbond>  (1) 
0

>  <r_i_glide_ligand_efficiency>  (1) 
-0.10820720923243485

>  <r_i_glide_ligand_efficiency_ln>  (1) 
-0.75652529687328685

>  <r_i_glide_ligand_efficiency_sa>  (1) 
-0.3399200335320382

>  <r_i_glide_lipo>  (1) 
-1.4324511164605065

>  <r_i_glide_metal>  (1) 
-0

>  <r_i_glide_rewards>  (1) 
-1.0710400893116203

>  <r_lp_Energy>  (1) 
52.707561999999996

>  <r_lp_tautomer_probability>  (1) 
1

>  <s_epik_cmdline>  (1) 
J2VwaWtfcHl0aG9uJywgJy1waHQnLCAnMS4wJywgJy1waCcsICc3LjQnLCAnLXRuJywgJzgnLCAnLW1hJywgJzUwMCcsICctaW1hZScsICc8aW5maWxlLm1hZT4nLCAnLW9tYWUnLCAnPG91dGZpbGUubWFlPic=

>  <s_epik_input>  (1) 
Tz1DKFtDSDNdKVtDSDJdW0NAQEhdKFtDSDJdW0NIM10pW0NAQEhdKFtDSDJdL1tDSF09W0NIXVwxKU4oW0NIM10pW0NIMl1DKEMyPU8pPUMxW0NIXT1DKFtDQEhdMjMpQz00QyhTMyk9W0NIXVtDQEhdKFtPSF0pQyhGKShGKVtDSF00

>  <s_glide_docking_method>  (1) 
confgen

>  <s_i_glide_gridfile>  (1) 
gpcr_drd2_6luq_protein_autoprepared_prepared

>  <s_lp_Force_Field>  (1) 
S-OPLS

>  <s_lp_Variant>  (1) 
DiffSBDD_80_num_sample_100-1

>  <s_m_source_file>  (1) 
generated__ligand_DiffSBDD_2026-05-06_prepared.sdf

>  <GenAI_Model>  (1) 
DiffSBDD

>  <Protein>  (1) 
generic_title2

$$$$
DiffSBDD_63_num_sample_100
     RDKit          3D

  0  0  0  0  0  0  0  0  0  0999 V3000
M  V30 BEGIN CTAB
M  V30 COUNTS 56 56 0 0 1
M  V30 BEGIN ATOM
M  V30 1 C 5.682803 -1.070626 -16.661964 0
M  V30 2 C 5.489411 5.620993 -13.597505 0
M  V30 3 C 8.549611 5.533928 -12.581484 0
M  V30 4 C 5.845386 1.955806 -13.276150 0
M  V30 5 C 7.025344 2.167227 -17.479486 0
M  V30 6 C 6.222784 4.518955 -12.845421 0
M  V30 7 C 6.424177 6.278855 -14.635313 0 CFG=1
M  V30 8 C 8.042943 1.874543 -16.358970 0
M  V30 9 C 8.092616 0.404010 -15.915420 0
M  V30 10 C 6.871550 -2.399421 -18.423421 0
M  V30 11 C 8.317824 6.942661 -13.091198 0
M  V30 12 C 8.093550 0.022142 -14.616345 0
M  V30 13 C 7.603161 -3.675958 -17.982869 0
M  V30 14 C 6.986657 3.649379 -17.872059 0
M  V30 15 C 7.316475 4.952230 -11.881192 0
M  V30 16 N 6.722495 0.995724 -12.818442 0
M  V30 17 O 5.714718 6.774896 -15.771824 0
M  V30 18 C 8.146821 -0.626889 -17.037769 0
M  V30 19 C 6.821232 -1.345863 -17.328535 0
M  V30 20 C 7.384194 7.274406 -13.999665 0
M  V30 21 C 8.045891 0.958441 -13.422451 0
M  V30 22 C 5.072259 8.033397 -15.642430 0
M  V30 23 C 5.958237 3.247103 -13.055822 0
M  V30 24 H 5.653895 -0.323426 -15.886844 0
M  V30 25 H 4.766834 -1.594377 -16.887022 0
M  V30 26 H 4.644931 5.178639 -14.118051 0
M  V30 27 H 5.073261 6.360920 -12.911044 0
M  V30 28 H 9.383885 5.567048 -11.879146 0
M  V30 29 H 8.874065 4.888017 -13.399643 0
M  V30 30 H 5.041162 1.537332 -13.859580 0
M  V30 31 H 6.034147 1.836126 -17.167584 0
M  V30 32 H 7.262329 1.595003 -18.375313 0
M  V30 33 H 7.044100 5.490928 -15.061266 0
M  V30 34 H 9.042363 2.158950 -16.694282 0
M  V30 35 H 7.803154 2.539414 -15.533618 0
M  V30 36 H 7.346252 -1.975736 -19.308792 0
M  V30 37 H 5.856024 -2.659785 -18.721360 0
M  V30 38 H 8.959715 7.712139 -12.686708 0
M  V30 39 H 8.130737 -1.030698 -14.384689 0
M  V30 40 H 7.615482 -4.412449 -18.785475 0
M  V30 41 H 7.110244 -4.134572 -17.125445 0
M  V30 42 H 8.635490 -3.471423 -17.699579 0
M  V30 43 H 6.240801 3.825845 -18.648740 0
M  V30 44 H 7.947459 3.999284 -18.245671 0
M  V30 45 H 6.715330 4.269079 -17.019632 0
M  V30 46 H 7.628779 4.099195 -11.277713 0
M  V30 47 H 6.902258 5.678216 -11.180115 0
M  V30 48 H 6.326492 0.063853 -12.800654 0
M  V30 49 H 8.544549 -0.182395 -17.949581 0
M  V30 50 H 8.873352 -1.380487 -16.736167 0
M  V30 51 H 7.294862 8.302669 -14.309117 0
M  V30 52 H 8.387597 1.965359 -13.654233 0
M  V30 53 H 8.752445 0.577277 -12.691190 0
M  V30 54 H 4.259001 8.106552 -16.364865 0
M  V30 55 H 5.767611 8.841911 -15.864671 0
M  V30 56 H 4.662611 8.180061 -14.643610 0
M  V30 END ATOM
M  V30 BEGIN BOND
M  V30 1 1 6 2
M  V30 2 1 7 2
M  V30 3 1 8 5
M  V30 4 1 9 8
M  V30 5 1 11 3
M  V30 6 2 12 9
M  V30 7 1 13 10
M  V30 8 1 14 5
M  V30 9 1 15 3
M  V30 10 1 15 6
M  V30 11 1 16 4
M  V30 12 1 17 7
M  V30 13 1 18 9
M  V30 14 2 19 1
M  V30 15 1 19 10
M  V30 16 1 19 18
M  V30 17 1 20 7
M  V30 18 2 20 11
M  V30 19 1 21 12
M  V30 20 1 21 16
M  V30 21 1 22 17
M  V30 22 2 23 4
M  V30 23 2 23 6
M  V30 24 1 24 1
M  V30 25 1 25 1
M  V30 26 1 26 2
M  V30 27 1 27 2
M  V30 28 1 28 3
M  V30 29 1 29 3
M  V30 30 1 30 4
M  V30 31 1 31 5
M  V30 32 1 32 5
M  V30 33 1 7 33 CFG=3
M  V30 34 1 34 8
M  V30 35 1 35 8
M  V30 36 1 36 10
M  V30 37 1 37 10
M  V30 38 1 38 11
M  V30 39 1 39 12
M  V30 40 1 40 13
M  V30 41 1 41 13
M  V30 42 1 42 13
M  V30 43 1 43 14
M  V30 44 1 44 14
M  V30 45 1 45 14
M  V30 46 1 46 15
M  V30 47 1 47 15
M  V30 48 1 48 16
M  V30 49 1 49 18
M  V30 50 1 50 18
M  V30 51 1 51 20
M  V30 52 1 52 21
M  V30 53 1 53 21
M  V30 54 1 54 22
M  V30 55 1 55 22
M  V30 56 1 56 22
M  V30 END BOND
M  V30 END CTAB
M  END
>  <i_epik_Tot_Q>  (1) 
0

>  <i_epik_Tot_abs_Q>  (1) 
0

>  <i_i_glide_confnum>  (1) 
32

>  <i_i_glide_lignum>  (1) 
125

>  <i_i_glide_posenum>  (1) 
312

>  <i_i_glide_rotatable_bonds>  (1) 
9

>  <i_lp_mmshare_version>  (1) 
72125

>  <i_m_source_file_index>  (1) 
64

>  <i_f3d_flags>  (1) 
0

>  <num_sample>  (1) 
100

>  <b_lp_Chiralities_Consistent>  (1) 
1

>  <r_epik_Charging_Adjusted_Penalty>  (1) 
0

>  <r_epik_Ionization_Penalty>  (1) 
2.3151810028890752e-06

>  <r_epik_Ionization_Penalty_Charging>  (1) 
0

>  <r_epik_Ionization_Penalty_Neutral>  (1) 
2.3151810028890752e-06

>  <r_epik_State_Penalty>  (1) 
-0

>  <r_glide_ring_energy>  (1) 
0

>  <r_i_docking_score>  (1) 
-3.3486503034630064

>  <r_i_glide_ecoul>  (1) 
-1.0387920206676138

>  <r_i_glide_eff_state_penalty>  (1) 
-0

>  <r_i_glide_einternal>  (1) 
9.7429812901068455

>  <r_i_glide_emodel>  (1) 
-24.234160473794994

>  <r_i_glide_emodel_strain>  (1) 
1.0114303476612143

>  <r_i_glide_energy>  (1) 
-24.283509670451302

>  <r_i_glide_erotb>  (1) 
1.3082352225513891

>  <r_i_glide_esite>  (1) 
0

>  <r_i_glide_evdw>  (1) 
-23.244717649783688

>  <r_i_glide_gscore>  (1) 
-3.3486503034630064

>  <r_i_glide_gscore_strain>  (1) 
0

>  <r_i_glide_hbond>  (1) 
0

>  <r_i_glide_ligand_efficiency>  (1) 
-0.14559349145491332

>  <r_i_glide_ligand_efficiency_ln>  (1) 
-0.80973400725955125

>  <r_i_glide_ligand_efficiency_sa>  (1) 
-0.4140485228299291

>  <r_i_glide_lipo>  (1) 
-1.8508413610798526

>  <r_i_glide_metal>  (1) 
-0

>  <r_i_glide_rewards>  (1) 
-1.4879894793452162

>  <r_lp_Energy>  (1) 
-10.607941

>  <r_lp_tautomer_probability>  (1) 
1

>  <s_epik_cmdline>  (1) 
J2VwaWtfcHl0aG9uJywgJy1waHQnLCAnMS4wJywgJy1waCcsICc3LjQnLCAnLXRuJywgJzgnLCAnLW1hJywgJzUwMCcsICctaW1hZScsICc8aW5maWxlLm1hZT4nLCAnLW9tYWUnLCAnPG91dGZpbGUubWFlPic=

>  <s_epik_input>  (1) 
W0NIM11bQ0gyXUMoPVtDSDJdKVtDSDJdQyhcW0NIMl1bQ0gyXVtDSDNdKT1bQ0hdXFtDSDJdW05IXVtDSF09Qz1DMVtDSDJdW0NAQEhdKE9bQ0gzXSlbQ0hdPVtDSF1bQ0gyXVtDSDJdMQ==

>  <s_glide_docking_method>  (1) 
confgen

>  <s_i_glide_gridfile>  (1) 
gpcr_drd2_6luq_protein_autoprepared_prepared

>  <s_lp_Force_Field>  (1) 
S-OPLS

>  <s_lp_Variant>  (1) 
DiffSBDD_63_num_sample_100-1

>  <s_m_source_file>  (1) 
generated__ligand_DiffSBDD_2026-05-06_prepared.sdf

>  <GenAI_Model>  (1) 
DiffSBDD

>  <Protein>  (1) 
generic_title2

$$$$
DiffSBDD_55_num_sample_100
     RDKit          3D

  0  0  0  0  0  0  0  0  0  0999 V3000
M  V30 BEGIN CTAB
M  V30 COUNTS 50 53 0 0 1
M  V30 BEGIN ATOM
M  V30 1 O 10.032032 0.985441 -20.098924 0
M  V30 2 C 5.929362 6.154939 -12.014200 0
M  V30 3 C 6.836581 -0.304463 -16.566978 0
M  V30 4 C 6.397066 0.170850 -13.608470 0
M  V30 5 C 8.142755 1.692745 -18.077647 0 CFG=2
M  V30 6 C 8.456037 0.227050 -18.382079 0 CFG=1
M  V30 7 S 7.986796 5.758636 -13.737921 0
M  V30 8 C 7.041209 6.934742 -12.728012 0
M  V30 9 C 6.456777 4.739376 -11.851111 0
M  V30 10 C 12.159278 0.569347 -19.227229 0
M  V30 11 N 6.784138 1.026420 -15.961634 0
M  V30 12 C 9.818901 0.014089 -19.085691 0 CFG=2
M  V30 13 C 8.215743 -0.661787 -17.141711 0 CFG=2
M  V30 14 C 11.082110 0.169193 -18.229843 0
M  V30 15 C 11.386004 0.876164 -20.510838 0
M  V30 16 C 7.916691 3.038166 -13.083706 0
M  V30 17 C 7.191666 1.105448 -14.542725 0 CFG=1
M  V30 18 C 7.798989 4.443046 -12.515135 0 CFG=1
M  V30 19 C 8.772132 2.403032 -16.913324 0
M  V30 20 O 5.835096 3.883878 -11.222042 0
M  V30 21 O 8.220681 -2.030305 -17.492427 0
M  V30 22 C 7.070935 2.515236 -13.989761 0
M  V30 23 C 7.300277 2.077263 -16.861349 0 CFG=1
M  V30 24 H 5.670399 6.596991 -11.053026 0
M  V30 25 H 5.034825 6.122490 -12.632794 0
M  V30 26 H 6.103516 -0.347266 -17.373881 0
M  V30 27 H 6.504701 -1.061170 -15.863126 0
M  V30 28 H 6.626402 0.373237 -12.561653 0
M  V30 29 H 5.320954 0.295586 -13.735894 0
M  V30 30 H 6.635000 -0.879282 -13.768717 0
M  V30 31 H 7.998143 2.301104 -18.968127 0
M  V30 32 H 7.704415 -0.062613 -19.118414 0
M  V30 33 H 7.707509 7.387197 -11.991745 0
M  V30 34 H 6.642863 7.735874 -13.348775 0
M  V30 35 H 12.884194 -0.229138 -19.387806 0
M  V30 36 H 12.699310 1.447850 -18.872264 0
M  V30 37 H 9.829638 -0.972814 -19.553271 0
M  V30 38 H 8.987641 -0.511691 -16.387613 0
M  V30 39 H 10.983771 0.966035 -17.499031 0
M  V30 40 H 11.325512 -0.743454 -17.685160 0
M  V30 41 H 11.478673 0.054622 -21.222936 0
M  V30 42 H 11.726098 1.790024 -20.998108 0
M  V30 43 H 8.739739 2.440649 -12.717555 0
M  V30 44 H 8.242609 0.825210 -14.461479 0
M  V30 45 H 8.570499 4.570402 -11.755387 0
M  V30 46 H 9.053694 3.444893 -17.051018 0
M  V30 47 H 9.434928 1.821956 -16.291529 0
M  V30 48 H 8.014818 -2.537840 -16.714148 0
M  V30 49 H 6.247483 3.110270 -14.356496 0
M  V30 50 H 6.634839 2.930625 -16.925043 0
M  V30 END ATOM
M  V30 BEGIN BOND
M  V30 1 1 6 5
M  V30 2 1 8 2
M  V30 3 1 8 7
M  V30 4 1 9 2
M  V30 5 1 11 3
M  V30 6 1 12 1
M  V30 7 1 12 6
M  V30 8 1 13 3
M  V30 9 1 13 6
M  V30 10 1 14 10
M  V30 11 1 14 12
M  V30 12 1 15 1
M  V30 13 1 15 10
M  V30 14 1 17 4
M  V30 15 1 17 11
M  V30 16 1 18 7
M  V30 17 1 18 9
M  V30 18 1 18 16
M  V30 19 1 19 5
M  V30 20 2 20 9
M  V30 21 1 21 13
M  V30 22 2 22 16
M  V30 23 1 22 17
M  V30 24 1 23 5
M  V30 25 1 23 11
M  V30 26 1 23 19
M  V30 27 1 24 2
M  V30 28 1 25 2
M  V30 29 1 26 3
M  V30 30 1 27 3
M  V30 31 1 28 4
M  V30 32 1 29 4
M  V30 33 1 30 4
M  V30 34 1 5 31 CFG=3
M  V30 35 1 6 32 CFG=3
M  V30 36 1 33 8
M  V30 37 1 34 8
M  V30 38 1 35 10
M  V30 39 1 36 10
M  V30 40 1 12 37 CFG=3
M  V30 41 1 13 38 CFG=1
M  V30 42 1 39 14
M  V30 43 1 40 14
M  V30 44 1 41 15
M  V30 45 1 42 15
M  V30 46 1 43 16
M  V30 47 1 17 44 CFG=3
M  V30 48 1 18 45 CFG=1
M  V30 49 1 46 19
M  V30 50 1 47 19
M  V30 51 1 48 21
M  V30 52 1 49 22
M  V30 53 1 23 50 CFG=3
M  V30 END BOND
M  V30 END CTAB
M  END
>  <i_epik_Tot_Q>  (1) 
0

>  <i_epik_Tot_abs_Q>  (1) 
0

>  <i_i_glide_confnum>  (1) 
212

>  <i_i_glide_lignum>  (1) 
108

>  <i_i_glide_posenum>  (1) 
326

>  <i_i_glide_rotatable_bonds>  (1) 
5

>  <i_lp_mmshare_version>  (1) 
72125

>  <i_m_source_file_index>  (1) 
56

>  <i_f3d_flags>  (1) 
0

>  <num_sample>  (1) 
100

>  <b_lp_Chiralities_Consistent>  (1) 
1

>  <r_epik_Charging_Adjusted_Penalty>  (1) 
1.1351003249830234

>  <r_epik_Ionization_Penalty>  (1) 
1.13510036387319

>  <r_epik_Ionization_Penalty_Charging>  (1) 
0

>  <r_epik_Ionization_Penalty_Neutral>  (1) 
1.13510036387319

>  <r_epik_State_Penalty>  (1) 
1.1351003249830234

>  <r_glide_ring_energy>  (1) 
0

>  <r_i_docking_score>  (1) 
-3.3440253434572478

>  <r_i_glide_ecoul>  (1) 
-4.65035083079324

>  <r_i_glide_eff_state_penalty>  (1) 
1.1351003249830234

>  <r_i_glide_einternal>  (1) 
5.2722195182226006

>  <r_i_glide_emodel>  (1) 
-37.946257550065653

>  <r_i_glide_emodel_strain>  (1) 
0.093649666660169828

>  <r_i_glide_energy>  (1) 
-33.83768618537583

>  <r_i_glide_erotb>  (1) 
0.4978175189556282

>  <r_i_glide_esite>  (1) 
-0.00010043918816814227

>  <r_i_glide_evdw>  (1) 
-29.18733535458259

>  <r_i_glide_gscore>  (1) 
-4.4791256684402709

>  <r_i_glide_gscore_strain>  (1) 
0

>  <r_i_glide_hbond>  (1) 
-0.32000000000000001

>  <r_i_glide_ligand_efficiency>  (1) 
-0.14539240623727165

>  <r_i_glide_ligand_efficiency_ln>  (1) 
-0.80861564999334012

>  <r_i_glide_ligand_efficiency_sa>  (1) 
-0.41347666321934162

>  <r_i_glide_lipo>  (1) 
-1.1539299923729567

>  <r_i_glide_metal>  (1) 
-0

>  <r_i_glide_rewards>  (1) 
-1.3459933634866585

>  <r_lp_Energy>  (1) 
15.605067999999999

>  <r_lp_tautomer_probability>  (1) 
0.99995000000000001

>  <s_epik_cmdline>  (1) 
J2VwaWtfcHl0aG9uJywgJy1waHQnLCAnMS4wJywgJy1waCcsICc3LjQnLCAnLXRuJywgJzgnLCAnLW1hJywgJzUwMCcsICctaW1hZScsICc8aW5maWxlLm1hZT4nLCAnLW9tYWUnLCAnPG91dGZpbGUubWFlPic=

>  <s_epik_input>  (1) 
W0NIMl0xW0NIMl1bQ0gyXU9bQ0BASF0xW0NASF0yW0NASF0oW09IXSlbQ0gyXU4oW0NASF0oW0NASF0yMylbQ0gyXTMpW0NASF0oW0NIM10pXFtDSF09W0NIXVxbQ0BIXTRTW0NIMl1bQ0gyXUM0PU8=

>  <s_glide_docking_method>  (1) 
confgen

>  <s_i_glide_gridfile>  (1) 
gpcr_drd2_6luq_protein_autoprepared_prepared

>  <s_lp_Force_Field>  (1) 
S-OPLS

>  <s_lp_Variant>  (1) 
DiffSBDD_55_num_sample_100-9

>  <s_m_source_file>  (1) 
generated__ligand_DiffSBDD_2026-05-06_prepared.sdf

>  <GenAI_Model>  (1) 
DiffSBDD

>  <Protein>  (1) 
generic_title2

$$$$
DiffSBDD_14_num_sample_100
     RDKit          3D

  0  0  0  0  0  0  0  0  0  0999 V3000
M  V30 BEGIN CTAB
M  V30 COUNTS 60 64 0 0 1
M  V30 BEGIN ATOM
M  V30 1 C 8.040163 0.829789 -19.865752 0 CFG=1
M  V30 2 O 15.314632 3.758540 -15.937049 0 CHG=-1
M  V30 3 C 4.634845 -2.851807 -17.923492 0
M  V30 4 C 10.266618 5.062254 -18.200648 0 CFG=2
M  V30 5 C 13.202014 5.209084 -18.359783 0 CFG=1
M  V30 6 C 11.146033 5.257839 -16.935761 0
M  V30 7 S 6.822714 1.995630 -20.543560 0
M  V30 8 S 13.589677 6.230121 -15.925124 0
M  V30 9 O 17.034820 4.569301 -17.091841 0
M  V30 10 C 9.057056 1.705985 -17.762798 0 CFG=2
M  V30 11 C 12.390155 5.148468 -19.653669 0
M  V30 12 C 8.863424 3.091513 -17.066888 0 CFG=2
M  V30 13 C 6.128256 -0.665939 -18.844423 0 CFG=1
M  V30 14 C 7.551329 2.945319 -16.274448 0
M  V30 15 C 8.890893 4.396115 -17.916882 0
M  V30 16 C 9.232558 1.604720 -19.298510 0
M  V30 17 C 14.584747 5.849376 -18.421695 0
M  V30 18 C 5.451208 0.855263 -20.773127 0
M  V30 19 C 5.027949 0.229628 -19.442032 0
M  V30 20 C 6.750461 1.877988 -17.002412 0
M  V30 21 C 12.439187 5.995418 -17.297862 0 CFG=1
M  V30 22 C 7.519944 0.007203 -18.675815 0 CFG=2
M  V30 23 C 15.873192 4.634563 -16.631458 0
M  V30 24 C 15.065590 5.901027 -16.955303 0 CFG=2
M  V30 25 C 7.810767 0.864218 -17.429278 0 CFG=1
M  V30 26 C 11.065448 4.420436 -19.361504 0
M  V30 27 S 5.565017 -1.430707 -17.293548 0
M  V30 28 H 8.349441 0.174334 -20.680729 0
M  V30 29 H 4.235552 -3.430787 -17.091731 0
M  V30 30 H 5.280109 -3.502714 -18.512969 0
M  V30 31 H 3.802072 -2.525092 -18.545660 0
M  V30 32 H 10.022874 6.067346 -18.549631 0
M  V30 33 H 13.337981 4.183361 -18.009093 0
M  V30 34 H 10.598305 5.808755 -16.170948 0
M  V30 35 H 11.424904 4.300074 -16.496944 0
M  V30 36 H 9.924351 1.223367 -17.308927 0
M  V30 37 H 12.198527 6.152530 -20.033789 0
M  V30 38 H 12.946991 4.617178 -20.425552 0
M  V30 39 H 9.625283 3.189794 -16.302064 0
M  V30 40 H 6.278181 -1.484141 -19.549768 0
M  V30 41 H 7.774174 2.589889 -15.267026 0
M  V30 42 H 6.999377 3.877522 -16.160016 0
M  V30 43 H 8.332789 5.152444 -17.363792 0
M  V30 44 H 8.319126 4.272227 -18.836039 0
M  V30 45 H 10.148951 1.053598 -19.512414 0
M  V30 46 H 9.325407 2.554674 -19.809328 0
M  V30 47 H 15.256601 5.285341 -19.070667 0
M  V30 48 H 14.519585 6.858194 -18.831119 0
M  V30 49 H 4.634841 1.421027 -21.208873 0
M  V30 50 H 5.735777 0.087919 -21.493286 0
M  V30 51 H 4.731783 1.005527 -18.739829 0
M  V30 52 H 4.129991 -0.365206 -19.609392 0
M  V30 53 H 5.979141 1.427069 -16.378076 0
M  V30 54 H 6.265922 2.340296 -17.858850 0
M  V30 55 H 12.200595 6.989778 -17.678980 0
M  V30 56 H 8.217633 -0.827927 -18.585848 0
M  V30 57 H 15.750958 6.738228 -16.843175 0
M  V30 58 H 8.024164 0.218415 -16.575069 0
M  V30 59 H 11.296755 3.385451 -19.111289 0
M  V30 60 H 10.462766 4.411093 -20.269955 0
M  V30 END ATOM
M  V30 BEGIN BOND
M  V30 1 1 6 4
M  V30 2 1 7 1
M  V30 3 1 11 5
M  V30 4 1 12 10
M  V30 5 1 14 12
M  V30 6 1 15 4
M  V30 7 1 15 12
M  V30 8 1 16 1
M  V30 9 1 16 10
M  V30 10 1 17 5
M  V30 11 1 18 7
M  V30 12 1 19 13
M  V30 13 1 19 18
M  V30 14 1 20 14
M  V30 15 1 21 5
M  V30 16 1 21 6
M  V30 17 1 21 8
M  V30 18 1 22 1
M  V30 19 1 22 13
M  V30 20 1 23 2
M  V30 21 2 23 9
M  V30 22 1 24 8
M  V30 23 1 24 17
M  V30 24 1 24 23
M  V30 25 1 25 10
M  V30 26 1 25 20
M  V30 27 1 25 22
M  V30 28 1 26 4
M  V30 29 1 26 11
M  V30 30 1 27 3
M  V30 31 1 27 13
M  V30 32 1 1 28 CFG=3
M  V30 33 1 29 3
M  V30 34 1 30 3
M  V30 35 1 31 3
M  V30 36 1 4 32 CFG=3
M  V30 37 1 5 33 CFG=1
M  V30 38 1 34 6
M  V30 39 1 35 6
M  V30 40 1 10 36 CFG=1
M  V30 41 1 37 11
M  V30 42 1 38 11
M  V30 43 1 12 39 CFG=1
M  V30 44 1 13 40 CFG=3
M  V30 45 1 41 14
M  V30 46 1 42 14
M  V30 47 1 43 15
M  V30 48 1 44 15
M  V30 49 1 45 16
M  V30 50 1 46 16
M  V30 51 1 47 17
M  V30 52 1 48 17
M  V30 53 1 49 18
M  V30 54 1 50 18
M  V30 55 1 51 19
M  V30 56 1 52 19
M  V30 57 1 53 20
M  V30 58 1 54 20
M  V30 59 1 21 55 CFG=3
M  V30 60 1 22 56 CFG=1
M  V30 61 1 24 57 CFG=3
M  V30 62 1 25 58 CFG=1
M  V30 63 1 59 26
M  V30 64 1 60 26
M  V30 END BOND
M  V30 END CTAB
M  END
>  <i_epik_Tot_Q>  (1) 
-1

>  <i_epik_Tot_abs_Q>  (1) 
1

>  <i_i_glide_confnum>  (1) 
5

>  <i_i_glide_lignum>  (1) 
23

>  <i_i_glide_posenum>  (1) 
395

>  <i_i_glide_rotatable_bonds>  (1) 
4

>  <i_lp_mmshare_version>  (1) 
72125

>  <i_m_source_file_index>  (1) 
15

>  <i_f3d_flags>  (1) 
0

>  <num_sample>  (1) 
100

>  <b_lp_Chiralities_Consistent>  (1) 
1

>  <r_epik_Charging_Adjusted_Penalty>  (1) 
0.00032590960807401398

>  <r_epik_Ionization_Penalty>  (1) 
0.00032590960807401398

>  <r_epik_Ionization_Penalty_Charging>  (1) 
0.00032590960807401398

>  <r_epik_Ionization_Penalty_Neutral>  (1) 
0

>  <r_epik_State_Penalty>  (1) 
-0

>  <r_glide_ring_energy>  (1) 
0

>  <r_i_docking_score>  (1) 
-3.3427430140190477

>  <r_i_glide_ecoul>  (1) 
-4.8357958820891671

>  <r_i_glide_eff_state_penalty>  (1) 
-0

>  <r_i_glide_einternal>  (1) 
4.463685175843489

>  <r_i_glide_emodel>  (1) 
-28.201144243510623

>  <r_i_glide_emodel_strain>  (1) 
0.059778072224759171

>  <r_i_glide_energy>  (1) 
-26.099564333707654

>  <r_i_glide_erotb>  (1) 
0.21895561960484411

>  <r_i_glide_esite>  (1) 
-0.019553835781020525

>  <r_i_glide_evdw>  (1) 
-21.263768451618489

>  <r_i_glide_gscore>  (1) 
-3.3427430140190477

>  <r_i_glide_gscore_strain>  (1) 
0

>  <r_i_glide_hbond>  (1) 
-0.16

>  <r_i_glide_ligand_efficiency>  (1) 
-0.12380529681552029

>  <r_i_glide_ligand_efficiency_ln>  (1) 
-0.77813546423801261

>  <r_i_glide_ligand_efficiency_sa>  (1) 
-0.37141589044656093

>  <r_i_glide_lipo>  (1) 
-1.086990015675843

>  <r_i_glide_metal>  (1) 
-0

>  <r_i_glide_rewards>  (1) 
-0.50659697727272834

>  <r_lp_Energy>  (1) 
33.503946999999997

>  <r_lp_tautomer_probability>  (1) 
1

>  <s_epik_cmdline>  (1) 
J2VwaWtfcHl0aG9uJywgJy1waHQnLCAnMS4wJywgJy1waCcsICc3LjQnLCAnLXRuJywgJzgnLCAnLW1hJywgJzUwMCcsICctaW1hZScsICc8aW5maWxlLm1hZT4nLCAnLW9tYWUnLCAnPG91dGZpbGUubWFlPic=

>  <s_epik_input>  (1) 
UzFbQ0gyXVtDSDJdW0NASF0oU1tDSDNdKVtDQEBIXShbQ0BASF0xMilbQ0BIXTNbQ0BASF0oW0NIMl0yKVtDQEhdKFtDSDJdW0NIMl0zKVtDSDJdW0NASF0oW0NIMl1bQ0gyXTQpW0NIMl1bQ0BIXShbQ0BASF00NSlTW0NASF0oW0NIMl01KUMoPU8pW09IXQ==

>  <s_glide_docking_method>  (1) 
confgen

>  <s_i_glide_gridfile>  (1) 
gpcr_drd2_6luq_protein_autoprepared_prepared

>  <s_lp_Force_Field>  (1) 
S-OPLS

>  <s_lp_Variant>  (1) 
DiffSBDD_14_num_sample_100-1

>  <s_m_source_file>  (1) 
generated__ligand_DiffSBDD_2026-05-06_prepared.sdf

>  <GenAI_Model>  (1) 
DiffSBDD

>  <Protein>  (1) 
generic_title2

$$$$
DiffSBDD_65_num_sample_100
     RDKit          3D

  0  0  0  0  0  0  0  0  0  0999 V3000
M  V30 BEGIN CTAB
M  V30 COUNTS 36 36 0 0 1
M  V30 BEGIN ATOM
M  V30 1 C 10.503731 5.914374 -7.891491 0
M  V30 2 C 7.927950 7.063187 -12.335375 0
M  V30 3 C 12.273064 8.970289 -4.147290 0
M  V30 4 C 10.713482 6.433018 -1.846556 0
M  V30 5 S 7.261121 5.389446 -12.071048 0 CHG=1
M  V30 6 C 11.901841 9.585043 -5.359613 0
M  V30 7 C 10.647200 7.589784 -5.989806 0
M  V30 8 C 9.013315 5.734150 -9.946394 0
M  V30 9 C 11.834973 7.664128 -3.861704 0
M  V30 10 C 5.584000 5.810157 -11.523988 0
M  V30 11 S 12.271453 6.909243 -2.330290 0
M  V30 12 C 11.034749 6.967187 -4.785133 0
M  V30 13 N 7.928091 4.969331 -10.534377 0
M  V30 14 N 9.643577 6.169301 -1.491651 0
M  V30 15 C 11.087557 8.895661 -6.278597 0
M  V30 16 C 9.559238 5.015953 -8.707049 0
M  V30 17 C 9.742333 6.862726 -6.963390 0
M  V30 18 H 11.159006 6.485169 -8.550301 0
M  V30 19 H 11.155659 5.292255 -7.283503 0
M  V30 20 H 7.457946 7.506314 -13.212999 0
M  V30 21 H 7.736058 7.722742 -11.491733 0
M  V30 22 H 9.002245 7.028404 -12.516926 0
M  V30 23 H 12.889037 9.502704 -3.436728 0
M  V30 24 H 12.234259 10.586381 -5.580983 0
M  V30 25 H 8.635087 6.711974 -9.661612 0
M  V30 26 H 9.814392 5.883608 -10.669882 0
M  V30 27 H 5.034839 6.269483 -12.345693 0
M  V30 28 H 5.052159 4.911441 -11.211870 0
M  V30 29 H 5.593856 6.511379 -10.691752 0
M  V30 30 H 10.695250 5.966113 -4.560820 0
M  V30 31 H 7.226264 4.795317 -9.827526 0
M  V30 32 H 10.795316 9.369236 -7.201830 0
M  V30 33 H 10.090374 4.118914 -9.024151 0
M  V30 34 H 8.743936 4.669199 -8.070094 0
M  V30 35 H 9.001348 6.309854 -6.383349 0
M  V30 36 H 9.178647 7.590959 -7.548482 0
M  V30 END ATOM
M  V30 BEGIN BOND
M  V30 1 1 5 2
M  V30 2 1 6 3
M  V30 3 2 9 3
M  V30 4 1 10 5
M  V30 5 1 11 4
M  V30 6 1 11 9
M  V30 7 2 12 7
M  V30 8 1 12 9
M  V30 9 1 13 5
M  V30 10 1 13 8
M  V30 11 3 14 4
M  V30 12 2 15 6
M  V30 13 1 15 7
M  V30 14 1 16 1
M  V30 15 1 16 8
M  V30 16 1 17 1
M  V30 17 1 17 7
M  V30 18 1 18 1
M  V30 19 1 19 1
M  V30 20 1 20 2
M  V30 21 1 21 2
M  V30 22 1 22 2
M  V30 23 1 23 3
M  V30 24 1 24 6
M  V30 25 1 25 8
M  V30 26 1 26 8
M  V30 27 1 27 10
M  V30 28 1 28 10
M  V30 29 1 29 10
M  V30 30 1 30 12
M  V30 31 1 31 13
M  V30 32 1 32 15
M  V30 33 1 33 16
M  V30 34 1 34 16
M  V30 35 1 35 17
M  V30 36 1 36 17
M  V30 END BOND
M  V30 END CTAB
M  END
>  <i_epik_Tot_Q>  (1) 
1

>  <i_epik_Tot_abs_Q>  (1) 
1

>  <i_i_glide_confnum>  (1) 
103

>  <i_i_glide_lignum>  (1) 
128

>  <i_i_glide_posenum>  (1) 
397

>  <i_i_glide_rotatable_bonds>  (1) 
7

>  <i_lp_mmshare_version>  (1) 
72125

>  <i_m_source_file_index>  (1) 
66

>  <i_f3d_flags>  (1) 
0

>  <num_sample>  (1) 
100

>  <b_lp_Chiralities_Consistent>  (1) 
1

>  <r_epik_Charging_Adjusted_Penalty>  (1) 
0

>  <r_epik_Ionization_Penalty>  (1) 
2.8679702438893361e-14

>  <r_epik_Ionization_Penalty_Charging>  (1) 
0

>  <r_epik_Ionization_Penalty_Neutral>  (1) 
2.8679702438893361e-14

>  <r_epik_State_Penalty>  (1) 
-0

>  <r_glide_ring_energy>  (1) 
0

>  <r_i_docking_score>  (1) 
-3.3413336189355416

>  <r_i_glide_ecoul>  (1) 
-3.5598022969716459

>  <r_i_glide_eff_state_penalty>  (1) 
-0

>  <r_i_glide_einternal>  (1) 
2.8116206248232181

>  <r_i_glide_emodel>  (1) 
-37.613745237857941

>  <r_i_glide_emodel_strain>  (1) 
0.091311869133892998

>  <r_i_glide_energy>  (1) 
-30.599759346124813

>  <r_i_glide_erotb>  (1) 
2.9918565276510027

>  <r_i_glide_esite>  (1) 
-0.026747462429801624

>  <r_i_glide_evdw>  (1) 
-27.039957049153166

>  <r_i_glide_gscore>  (1) 
-3.3413336189355416

>  <r_i_glide_gscore_strain>  (1) 
0

>  <r_i_glide_hbond>  (1) 
0

>  <r_i_glide_ligand_efficiency>  (1) 
-0.19654903640797303

>  <r_i_glide_ligand_efficiency_ln>  (1) 
-0.87167953333894554

>  <r_i_glide_ligand_efficiency_sa>  (1) 
-0.50538291897743637

>  <r_i_glide_lipo>  (1) 
-2.1414575572780787

>  <r_i_glide_metal>  (1) 
-0

>  <r_i_glide_rewards>  (1) 
-2.2790169298752598

>  <r_lp_Energy>  (1) 
7.7387159999999993

>  <r_lp_tautomer_probability>  (1) 
1

>  <s_epik_cmdline>  (1) 
J2VwaWtfcHl0aG9uJywgJy1waHQnLCAnMS4wJywgJy1waCcsICc3LjQnLCAnLXRuJywgJzgnLCAnLW1hJywgJzUwMCcsICctaW1hZScsICc8aW5maWxlLm1hZT4nLCAnLW9tYWUnLCAnPG91dGZpbGUubWFlPic=

>  <s_epik_input>  (1) 
W0NIM11bUytdKFtDSDNdKVtOSF1bQ0gyXVtDSDJdW0NIMl1bQ0gyXWMxW2NIXWMoU0MjTilbY0hdW2NIXVtjSF0x

>  <s_glide_docking_method>  (1) 
confgen

>  <s_i_glide_gridfile>  (1) 
gpcr_drd2_6luq_protein_autoprepared_prepared

>  <s_lp_Force_Field>  (1) 
S-OPLS

>  <s_lp_Variant>  (1) 
DiffSBDD_65_num_sample_100-1

>  <s_m_source_file>  (1) 
generated__ligand_DiffSBDD_2026-05-06_prepared.sdf

>  <GenAI_Model>  (1) 
DiffSBDD

>  <Protein>  (1) 
generic_title2

$$$$
DiffSBDD_80_num_sample_100
     RDKit          3D

  0  0  0  0  0  0  0  0  0  0999 V3000
M  V30 BEGIN CTAB
M  V30 COUNTS 57 60 0 0 1
M  V30 BEGIN ATOM
M  V30 1 C 19.106720 6.372831 -20.482945 0
M  V30 2 C 15.111499 6.639722 -19.820697 0
M  V30 3 O 17.464821 9.369626 -17.491787 0
M  V30 4 C 11.840854 5.468495 -17.962126 0
M  V30 5 C 18.511627 9.143107 -18.093341 0
M  V30 6 C 12.630980 7.001857 -20.231414 0
M  V30 7 C 18.988559 7.712463 -18.359366 0
M  V30 8 C 19.391589 10.274978 -18.605465 0
M  V30 9 C 16.286475 4.733583 -20.833570 0
M  V30 10 C 17.144929 5.910082 -18.789085 0 CFG=2
M  V30 11 C 11.236759 7.146468 -19.676901 0 CFG=2
M  V30 12 O 5.696781 6.265651 -18.102124 0 CHG=-1
M  V30 13 C 9.505641 5.781699 -18.590597 0
M  V30 14 C 16.397474 6.373830 -17.517260 0
M  V30 15 C 10.892512 6.077355 -18.691696 0
M  V30 16 C 7.435258 4.696352 -17.607055 0
M  V30 17 C 13.279428 5.707848 -18.174497 0
M  V30 18 F 7.019731 4.967405 -16.365778 0
M  V30 19 C 13.684470 6.424528 -19.320009 0
M  V30 20 C 19.988264 5.206034 -20.012931 0
M  V30 21 C 8.943794 4.975001 -17.669724 0
M  V30 22 C 8.736000 6.414539 -19.579166 0
M  V30 23 C 18.142266 6.953896 -19.416519 0 CFG=2
M  V30 24 O 12.868758 7.393062 -21.374388 0
M  V30 25 S 9.688484 7.369336 -20.736461 0
M  V30 26 N 16.028260 5.525945 -19.638823 0
M  V30 27 F 7.243403 3.386755 -17.776332 0
M  V30 28 C 14.204693 5.048170 -17.180842 0
M  V30 29 C 15.523245 5.297663 -16.919636 0
M  V30 30 C 7.392615 6.290189 -19.660953 0
M  V30 31 C 6.542427 5.454223 -18.689830 0 CFG=2
M  V30 32 H 18.565803 6.069368 -21.374518 0
M  V30 33 H 19.758694 7.174345 -20.832566 0
M  V30 34 H 15.082969 6.790054 -20.899562 0
M  V30 35 H 15.464603 7.615178 -19.491672 0
M  V30 36 H 11.550697 4.728734 -17.234500 0
M  V30 37 H 20.023636 7.787592 -18.692347 0
M  V30 38 H 19.034648 7.157872 -17.424683 0
M  V30 39 H 20.435330 10.094754 -18.347561 0
M  V30 40 H 19.086679 11.222789 -18.162775 0
M  V30 41 H 19.308585 10.353664 -19.689285 0
M  V30 42 H 17.022280 3.953700 -20.636410 0
M  V30 43 H 16.629976 5.345946 -21.665365 0
M  V30 44 H 15.364074 4.247638 -21.153270 0
M  V30 45 H 17.698280 5.008346 -18.528408 0
M  V30 46 H 11.286973 8.064710 -19.091656 0
M  V30 47 H 17.131931 6.568082 -16.737645 0
M  V30 48 H 15.854401 7.315315 -17.561190 0
M  V30 49 H 20.736649 4.965045 -20.768117 0
M  V30 50 H 19.399759 4.303181 -19.852745 0
M  V30 51 H 20.521103 5.444615 -19.091669 0
M  V30 52 H 9.550297 4.494391 -16.920701 0
M  V30 53 H 17.560543 7.703268 -19.953612 0
M  V30 54 H 13.759425 4.264414 -16.584331 0
M  V30 55 H 16.005158 4.695227 -16.163822 0
M  V30 56 H 6.859412 6.795850 -20.452465 0
M  V30 57 H 6.160860 4.673743 -19.349763 0
M  V30 END ATOM
M  V30 BEGIN BOND
M  V30 1 2 5 3
M  V30 2 1 7 5
M  V30 3 1 8 5
M  V30 4 1 11 6
M  V30 5 1 14 10
M  V30 6 2 15 4
M  V30 7 1 15 11
M  V30 8 1 15 13
M  V30 9 1 17 4
M  V30 10 1 18 16
M  V30 11 1 19 2
M  V30 12 1 19 6
M  V30 13 2 19 17
M  V30 14 1 20 1
M  V30 15 2 21 13
M  V30 16 1 21 16
M  V30 17 1 22 13
M  V30 18 1 23 1
M  V30 19 1 23 7
M  V30 20 1 23 10
M  V30 21 2 24 6
M  V30 22 1 25 11
M  V30 23 1 25 22
M  V30 24 1 26 2
M  V30 25 1 26 9
M  V30 26 1 26 10
M  V30 27 1 27 16
M  V30 28 1 28 17
M  V30 29 1 29 14
M  V30 30 2 29 28
M  V30 31 2 30 22
M  V30 32 1 31 12
M  V30 33 1 31 16
M  V30 34 1 31 30
M  V30 35 1 32 1
M  V30 36 1 33 1
M  V30 37 1 34 2
M  V30 38 1 35 2
M  V30 39 1 36 4
M  V30 40 1 37 7
M  V30 41 1 38 7
M  V30 42 1 39 8
M  V30 43 1 40 8
M  V30 44 1 41 8
M  V30 45 1 42 9
M  V30 46 1 43 9
M  V30 47 1 44 9
M  V30 48 1 10 45 CFG=1
M  V30 49 1 11 46 CFG=1
M  V30 50 1 47 14
M  V30 51 1 48 14
M  V30 52 1 49 20
M  V30 53 1 50 20
M  V30 54 1 51 20
M  V30 55 1 52 21
M  V30 56 1 23 53 CFG=3
M  V30 57 1 54 28
M  V30 58 1 55 29
M  V30 59 1 56 30
M  V30 60 1 31 57 CFG=3
M  V30 END BOND
M  V30 END CTAB
M  END
>  <i_epik_Tot_Q>  (1) 
-1

>  <i_epik_Tot_abs_Q>  (1) 
1

>  <i_i_glide_confnum>  (1) 
5

>  <i_i_glide_lignum>  (1) 
163

>  <i_i_glide_posenum>  (1) 
202

>  <i_i_glide_rotatable_bonds>  (1) 
4

>  <i_lp_mmshare_version>  (1) 
72125

>  <i_m_source_file_index>  (1) 
81

>  <i_f3d_flags>  (1) 
0

>  <num_sample>  (1) 
100

>  <b_lp_Chiralities_Consistent>  (1) 
1

>  <r_epik_Charging_Adjusted_Penalty>  (1) 
8.7803366933407872e-06

>  <r_epik_Ionization_Penalty>  (1) 
0.00048743314384941063

>  <r_epik_Ionization_Penalty_Charging>  (1) 
8.7803366933407872e-06

>  <r_epik_Ionization_Penalty_Neutral>  (1) 
0.00047865280715606983

>  <r_epik_State_Penalty>  (1) 
-0

>  <r_glide_ring_energy>  (1) 
0

>  <r_i_docking_score>  (1) 
-3.3402600993528946

>  <r_i_glide_ecoul>  (1) 
-0.39734830496768969

>  <r_i_glide_eff_state_penalty>  (1) 
-0

>  <r_i_glide_einternal>  (1) 
6.4878563518462542

>  <r_i_glide_emodel>  (1) 
-29.13733214889243

>  <r_i_glide_emodel_strain>  (1) 
0.068940881907820994

>  <r_i_glide_energy>  (1) 
-26.975073481857798

>  <r_i_glide_erotb>  (1) 
0.20077648214602295

>  <r_i_glide_esite>  (1) 
0

>  <r_i_glide_evdw>  (1) 
-26.577725176890109

>  <r_i_glide_gscore>  (1) 
-3.3402600993528946

>  <r_i_glide_gscore_strain>  (1) 
0

>  <r_i_glide_hbond>  (1) 
0

>  <r_i_glide_ligand_efficiency>  (1) 
-0.10775032578557725

>  <r_i_glide_ligand_efficiency_ln>  (1) 
-0.75333101908234978

>  <r_i_glide_ligand_efficiency_sa>  (1) 
-0.33848478871168186

>  <r_i_glide_lipo>  (1) 
-1.2813989007464233

>  <r_i_glide_metal>  (1) 
-0

>  <r_i_glide_rewards>  (1) 
-0.87114917616283494

>  <r_lp_Energy>  (1) 
60.210590999999994

>  <r_lp_tautomer_probability>  (1) 
1

>  <s_epik_cmdline>  (1) 
J2VwaWtfcHl0aG9uJywgJy1waHQnLCAnMS4wJywgJy1waCcsICc3LjQnLCAnLXRuJywgJzgnLCAnLW1hJywgJzUwMCcsICctaW1hZScsICc8aW5maWxlLm1hZT4nLCAnLW9tYWUnLCAnPG91dGZpbGUubWFlPic=

>  <s_epik_input>  (1) 
Tz1DKFtDSDNdKVtDSDJdW0NAQEhdKFtDSDJdW0NIM10pW0NAQEhdKFtDSDJdL1tDSF09W0NIXVwxKU4oW0NIM10pW0NIMl1DKEMyPU8pPUMxW0NIXT1DKFtDQEhdMjMpQz00QyhTMyk9W0NIXVtDQEhdKFtPSF0pQyhGKShGKVtDSF00

>  <s_glide_docking_method>  (1) 
confgen

>  <s_i_glide_gridfile>  (1) 
gpcr_drd2_6luq_protein_autoprepared_prepared

>  <s_lp_Force_Field>  (1) 
S-OPLS

>  <s_lp_Variant>  (1) 
DiffSBDD_80_num_sample_100-2

>  <s_m_source_file>  (1) 
generated__ligand_DiffSBDD_2026-05-06_prepared.sdf

>  <GenAI_Model>  (1) 
DiffSBDD

>  <Protein>  (1) 
generic_title2

$$$$
DiffSBDD_55_num_sample_100
     RDKit          3D

  0  0  0  0  0  0  0  0  0  0999 V3000
M  V30 BEGIN CTAB
M  V30 COUNTS 50 53 0 0 1
M  V30 BEGIN ATOM
M  V30 1 O 7.365201 4.969176 -9.491750 0
M  V30 2 C 5.279760 6.335026 -21.285435 0
M  V30 3 C 5.524881 5.069973 -13.630175 0
M  V30 4 C 6.498825 7.602202 -15.113229 0
M  V30 5 C 8.211021 4.289114 -13.047667 0 CFG=2
M  V30 6 C 7.294011 4.648714 -11.881591 0 CFG=1
M  V30 7 S 6.471403 4.688689 -19.509121 0
M  V30 8 C 5.302840 4.856160 -20.883502 0
M  V30 9 C 5.579193 7.119084 -20.014961 0
M  V30 10 C 9.597323 5.369295 -8.981458 0
M  V30 11 N 6.464420 5.117313 -14.754985 0
M  V30 12 C 8.027305 5.303525 -10.696782 0 CFG=2
M  V30 13 C 6.143694 5.570507 -12.318868 0 CFG=2
M  V30 14 C 9.434837 4.862981 -10.405745 0
M  V30 15 C 8.246796 5.033529 -8.379749 0
M  V30 16 C 4.907755 6.208580 -17.830446 0
M  V30 17 C 6.368533 6.210357 -15.740981 0 CFG=1
M  V30 18 C 6.057920 6.307482 -18.814486 0 CFG=1
M  V30 19 C 8.890222 5.369298 -13.839731 0
M  V30 20 O 5.434967 8.338899 -19.958599 0
M  V30 21 O 5.188208 5.598349 -11.280185 0
M  V30 22 C 5.040993 6.169300 -16.491589 0
M  V30 23 C 7.792224 4.554047 -14.488487 0 CFG=1
M  V30 24 H 6.059987 6.548551 -22.016395 0
M  V30 25 H 4.320647 6.625465 -21.713967 0
M  V30 26 H 5.187776 4.042070 -13.491088 0
M  V30 27 H 4.634877 5.648623 -13.856729 0
M  V30 28 H 6.416586 8.380572 -15.872918 0
M  V30 29 H 5.704234 7.769308 -14.386638 0
M  V30 30 H 7.449922 7.751040 -14.611598 0
M  V30 31 H 8.809772 3.396651 -12.873414 0
M  V30 32 H 6.863963 3.704866 -11.547692 0
M  V30 33 H 5.591828 4.211301 -21.713626 0
M  V30 34 H 4.314259 4.540892 -20.546415 0
M  V30 35 H 9.747707 6.450277 -8.981016 0
M  V30 36 H 10.418799 4.909126 -8.433635 0
M  V30 37 H 8.043603 6.388028 -10.811422 0
M  V30 38 H 6.500692 6.591304 -12.457421 0
M  V30 39 H 9.518967 3.776336 -10.445619 0
M  V30 40 H 10.144268 5.297413 -11.109566 0
M  V30 41 H 7.922448 5.769296 -7.646419 0
M  V30 42 H 8.264061 4.061801 -7.891663 0
M  V30 43 H 3.916709 6.169456 -18.257431 0
M  V30 44 H 7.179906 6.081789 -16.454987 0
M  V30 45 H 6.938554 6.773698 -18.375483 0
M  V30 46 H 9.911541 5.180816 -14.162997 0
M  V30 47 H 8.697639 6.380204 -13.492645 0
M  V30 48 H 5.636336 5.847205 -10.478555 0
M  V30 49 H 4.157879 6.105672 -15.891668 0
M  V30 50 H 8.087141 3.842008 -15.256769 0
M  V30 END ATOM
M  V30 BEGIN BOND
M  V30 1 1 6 5
M  V30 2 1 8 2
M  V30 3 1 8 7
M  V30 4 1 9 2
M  V30 5 1 11 3
M  V30 6 1 12 1
M  V30 7 1 12 6
M  V30 8 1 13 3
M  V30 9 1 13 6
M  V30 10 1 14 10
M  V30 11 1 14 12
M  V30 12 1 15 1
M  V30 13 1 15 10
M  V30 14 1 17 4
M  V30 15 1 17 11
M  V30 16 1 18 7
M  V30 17 1 18 9
M  V30 18 1 18 16
M  V30 19 1 19 5
M  V30 20 2 20 9
M  V30 21 1 21 13
M  V30 22 2 22 16
M  V30 23 1 22 17
M  V30 24 1 23 5
M  V30 25 1 23 11
M  V30 26 1 23 19
M  V30 27 1 24 2
M  V30 28 1 25 2
M  V30 29 1 26 3
M  V30 30 1 27 3
M  V30 31 1 28 4
M  V30 32 1 29 4
M  V30 33 1 30 4
M  V30 34 1 5 31 CFG=3
M  V30 35 1 6 32 CFG=1
M  V30 36 1 33 8
M  V30 37 1 34 8
M  V30 38 1 35 10
M  V30 39 1 36 10
M  V30 40 1 12 37 CFG=3
M  V30 41 1 13 38 CFG=3
M  V30 42 1 39 14
M  V30 43 1 40 14
M  V30 44 1 41 15
M  V30 45 1 42 15
M  V30 46 1 43 16
M  V30 47 1 17 44 CFG=3
M  V30 48 1 18 45 CFG=1
M  V30 49 1 46 19
M  V30 50 1 47 19
M  V30 51 1 48 21
M  V30 52 1 49 22
M  V30 53 1 23 50 CFG=3
M  V30 END BOND
M  V30 END CTAB
M  END
>  <i_epik_Tot_Q>  (1) 
0

>  <i_epik_Tot_abs_Q>  (1) 
0

>  <i_i_glide_confnum>  (1) 
63

>  <i_i_glide_lignum>  (1) 
109

>  <i_i_glide_posenum>  (1) 
328

>  <i_i_glide_rotatable_bonds>  (1) 
5

>  <i_lp_mmshare_version>  (1) 
72125

>  <i_m_source_file_index>  (1) 
56

>  <i_f3d_flags>  (1) 
0

>  <num_sample>  (1) 
100

>  <b_lp_Chiralities_Consistent>  (1) 
1

>  <r_epik_Charging_Adjusted_Penalty>  (1) 
1.1351003249830234

>  <r_epik_Ionization_Penalty>  (1) 
1.13510036387319

>  <r_epik_Ionization_Penalty_Charging>  (1) 
0

>  <r_epik_Ionization_Penalty_Neutral>  (1) 
1.13510036387319

>  <r_epik_State_Penalty>  (1) 
1.1351003249830234

>  <r_glide_ring_energy>  (1) 
0.84612545809472284

>  <r_i_docking_score>  (1) 
-3.3369149897137032

>  <r_i_glide_ecoul>  (1) 
0.099939251832733889

>  <r_i_glide_eff_state_penalty>  (1) 
1.1351003249830234

>  <r_i_glide_einternal>  (1) 
8.0162755713849094

>  <r_i_glide_emodel>  (1) 
-29.167605375052375

>  <r_i_glide_emodel_strain>  (1) 
0.29363400350439406

>  <r_i_glide_energy>  (1) 
-26.034744075583752

>  <r_i_glide_erotb>  (1) 
0.4978175189556282

>  <r_i_glide_esite>  (1) 
0

>  <r_i_glide_evdw>  (1) 
-26.134683327416486

>  <r_i_glide_gscore>  (1) 
-4.4720153146967263

>  <r_i_glide_gscore_strain>  (1) 
0

>  <r_i_glide_hbond>  (1) 
0

>  <r_i_glide_ligand_efficiency>  (1) 
-0.14508326042233491

>  <r_i_glide_ligand_efficiency_ln>  (1) 
-0.80689630198502782

>  <r_i_glide_ligand_efficiency_sa>  (1) 
-0.41259749364428377

>  <r_i_glide_lipo>  (1) 
-1.7677298612186305

>  <r_i_glide_metal>  (1) 
-0

>  <r_i_glide_rewards>  (1) 
-1.9103596938378105

>  <r_lp_Energy>  (1) 
16.200793000000001

>  <r_lp_tautomer_probability>  (1) 
0.99995000000000001

>  <s_epik_cmdline>  (1) 
J2VwaWtfcHl0aG9uJywgJy1waHQnLCAnMS4wJywgJy1waCcsICc3LjQnLCAnLXRuJywgJzgnLCAnLW1hJywgJzUwMCcsICctaW1hZScsICc8aW5maWxlLm1hZT4nLCAnLW9tYWUnLCAnPG91dGZpbGUubWFlPic=

>  <s_epik_input>  (1) 
W0NIMl0xW0NIMl1bQ0gyXU9bQ0BASF0xW0NASF0yW0NASF0oW09IXSlbQ0gyXU4oW0NASF0oW0NASF0yMylbQ0gyXTMpW0NASF0oW0NIM10pL1tDSF09W0NIXVxbQ0BIXTRTW0NIMl1bQ0gyXUM0PU8=

>  <s_glide_docking_method>  (1) 
confgen

>  <s_i_glide_gridfile>  (1) 
gpcr_drd2_6luq_protein_autoprepared_prepared

>  <s_lp_Force_Field>  (1) 
S-OPLS

>  <s_lp_Variant>  (1) 
DiffSBDD_55_num_sample_100-10

>  <s_m_source_file>  (1) 
generated__ligand_DiffSBDD_2026-05-06_prepared.sdf

>  <GenAI_Model>  (1) 
DiffSBDD

>  <Protein>  (1) 
generic_title2

$$$$
DiffSBDD_76_num_sample_100
     RDKit          3D

  0  0  0  0  0  0  0  0  0  0999 V3000
M  V30 BEGIN CTAB
M  V30 COUNTS 77 80 0 0 1
M  V30 BEGIN ATOM
M  V30 1 C 6.743755 2.053582 -13.053988 0
M  V30 2 C 8.244440 2.953199 -17.882211 0
M  V30 3 C 9.392943 3.990995 -11.461983 0
M  V30 4 N 7.409982 3.392655 -13.048416 0 CFG=1 CHG=1
M  V30 5 C 8.537244 3.562292 -19.138424 0
M  V30 6 C 12.201473 8.589486 -3.187873 0
M  V30 7 C 12.234537 7.292639 -3.511615 0
M  V30 8 C 11.321596 7.685156 -7.216461 0 CFG=1
M  V30 9 C 7.665225 1.800172 -15.411757 0
M  V30 10 N 10.098960 6.961434 -9.466734 0
M  V30 11 C 11.351439 7.015694 -10.189098 0
M  V30 12 C 7.529477 3.198672 -15.543312 0
M  V30 13 C 11.543812 6.719496 -4.749237 0
M  V30 14 C 7.674567 5.185826 -16.990553 0
M  V30 15 C 8.085411 1.056530 -16.521780 0
M  V30 16 C 9.429848 8.968889 -8.495208 0
M  V30 17 C 7.372521 1.107187 -14.089744 0
M  V30 18 C 9.434244 5.656722 -9.528768 0
M  V30 19 N 8.372552 1.607347 -17.712767 0
M  V30 20 O 11.697099 8.349070 -10.361514 0
M  V30 21 O 9.070265 5.056053 -21.659096 0
M  V30 22 C 10.889336 7.778079 -5.705947 0 CFG=1
M  V30 23 C 8.397835 4.977875 -19.311692 0
M  V30 24 C 8.852919 5.327717 -10.934561 0
M  V30 25 N 13.256974 9.369299 -6.660624 0 CHG=1
M  V30 26 C 10.038995 7.620409 -8.155205 0 CFG=2
M  V30 27 O 8.958751 2.772086 -20.179177 0 CHG=-1
M  V30 28 C 8.889863 3.417564 -12.798871 0
M  V30 29 C 7.814737 3.792511 -16.803516 0
M  V30 30 C 7.083878 4.050551 -14.340305 0
M  V30 31 C 12.391016 8.751123 -7.674594 0
M  V30 32 C 11.497029 9.547870 -4.002239 0
M  V30 33 C 10.898320 9.198704 -5.150220 0
M  V30 34 C 8.708652 5.649199 -20.643458 0
M  V30 35 C 7.962778 5.769861 -18.228092 0
M  V30 36 C 8.549671 7.170853 -20.676700 0
M  V30 37 H 6.659452 1.568248 -12.086646 0
M  V30 38 H 5.701768 2.210002 -13.334956 0
M  V30 39 H 10.449965 4.170268 -11.630132 0
M  V30 40 H 9.353160 3.231127 -10.691828 0
M  V30 41 H 12.705186 8.924522 -2.292463 0
M  V30 42 H 12.763012 6.593178 -2.879007 0
M  V30 43 H 11.801045 6.713356 -7.323839 0
M  V30 44 H 11.252671 6.569599 -11.180530 0
M  V30 45 H 12.148741 6.569329 -9.611246 0
M  V30 46 H 10.763579 6.049880 -4.380885 0
M  V30 47 H 12.234743 6.073872 -5.284213 0
M  V30 48 H 7.342502 5.815085 -16.183813 0
M  V30 49 H 8.202092 -0.015844 -16.450455 0
M  V30 50 H 9.034876 9.430385 -7.596228 0
M  V30 51 H 10.090853 9.594243 -9.091558 0
M  V30 52 H 8.635017 8.910606 -9.209393 0
M  V30 53 H 6.702997 0.264207 -14.268031 0
M  V30 54 H 8.295761 0.666606 -13.711510 0
M  V30 55 H 10.122553 4.887385 -9.178141 0
M  V30 56 H 8.592215 5.636036 -8.833275 0
M  V30 57 H 11.890697 8.490100 -11.273868 0
M  V30 58 H 9.830311 7.523717 -5.661732 0
M  V30 59 H 7.766873 5.285771 -10.860175 0
M  V30 60 H 9.065097 6.121961 -11.650915 0
M  V30 61 H 13.828276 10.081916 -7.086587 0
M  V30 62 H 12.676676 9.781855 -5.944075 0
M  V30 63 H 9.260266 7.101068 -7.599536 0
M  V30 64 H 9.380907 4.006860 -13.573500 0
M  V30 65 H 9.313424 2.419624 -12.887229 0
M  V30 66 H 6.009999 4.224520 -14.411329 0
M  V30 67 H 7.557729 5.029452 -14.319348 0
M  V30 68 H 13.086325 8.304717 -8.384219 0
M  V30 69 H 11.921810 9.598255 -8.159683 0
M  V30 70 H 11.434651 10.568758 -3.675884 0
M  V30 71 H 10.374023 9.944306 -5.725078 0
M  V30 72 H 7.848867 6.835567 -18.343377 0
M  V30 73 H 8.839884 7.556838 -21.653626 0
M  V30 74 H 7.514197 7.453419 -20.489790 0
M  V30 75 H 9.191311 7.636863 -19.930290 0
M  V30 76 H 13.859957 8.676489 -6.242678 0
M  V30 77 H 6.978450 3.948234 -12.322586 0
M  V30 END ATOM
M  V30 BEGIN BOND
M  V30 1 1 4 1
M  V30 2 2 5 2
M  V30 3 2 7 6
M  V30 4 1 11 10
M  V30 5 2 12 9
M  V30 6 1 13 7
M  V30 7 1 15 9
M  V30 8 1 17 1
M  V30 9 1 17 9
M  V30 10 1 18 10
M  V30 11 1 19 2
M  V30 12 2 19 15
M  V30 13 1 20 11
M  V30 14 1 22 8
M  V30 15 1 22 13
M  V30 16 1 23 5
M  V30 17 1 24 3
M  V30 18 1 24 18
M  V30 19 1 26 8
M  V30 20 1 26 10
M  V30 21 1 26 16
M  V30 22 1 27 5
M  V30 23 1 28 3
M  V30 24 1 28 4
M  V30 25 1 29 2
M  V30 26 1 29 12
M  V30 27 2 29 14
M  V30 28 1 30 4
M  V30 29 1 30 12
M  V30 30 1 31 8
M  V30 31 1 31 25
M  V30 32 1 32 6
M  V30 33 1 33 22
M  V30 34 2 33 32
M  V30 35 2 34 21
M  V30 36 1 34 23
M  V30 37 1 35 14
M  V30 38 2 35 23
M  V30 39 1 36 34
M  V30 40 1 37 1
M  V30 41 1 38 1
M  V30 42 1 39 3
M  V30 43 1 40 3
M  V30 44 1 41 6
M  V30 45 1 42 7
M  V30 46 1 8 43 CFG=1
M  V30 47 1 44 11
M  V30 48 1 45 11
M  V30 49 1 46 13
M  V30 50 1 47 13
M  V30 51 1 48 14
M  V30 52 1 49 15
M  V30 53 1 50 16
M  V30 54 1 51 16
M  V30 55 1 52 16
M  V30 56 1 53 17
M  V30 57 1 54 17
M  V30 58 1 55 18
M  V30 59 1 56 18
M  V30 60 1 57 20
M  V30 61 1 22 58 CFG=3
M  V30 62 1 59 24
M  V30 63 1 60 24
M  V30 64 1 61 25
M  V30 65 1 62 25
M  V30 66 1 26 63 CFG=1
M  V30 67 1 64 28
M  V30 68 1 65 28
M  V30 69 1 66 30
M  V30 70 1 67 30
M  V30 71 1 68 31
M  V30 72 1 69 31
M  V30 73 1 70 32
M  V30 74 1 71 33
M  V30 75 1 72 35
M  V30 76 1 73 36
M  V30 77 1 74 36
M  V30 78 1 75 36
M  V30 79 1 76 25
M  V30 80 1 4 77 CFG=1
M  V30 END BOND
M  V30 END CTAB
M  END
>  <i_epik_Tot_Q>  (1) 
1

>  <i_epik_Tot_abs_Q>  (1) 
3

>  <i_i_glide_confnum>  (1) 
1584

>  <i_i_glide_lignum>  (1) 
152

>  <i_i_glide_posenum>  (1) 
368

>  <i_i_glide_rotatable_bonds>  (1) 
12

>  <i_lp_mmshare_version>  (1) 
72125

>  <i_m_source_file_index>  (1) 
77

>  <i_f3d_flags>  (1) 
0

>  <num_sample>  (1) 
100

>  <b_lp_Chiralities_Consistent>  (1) 
1

>  <r_epik_Charging_Adjusted_Penalty>  (1) 
0.19513752508682314

>  <r_epik_Ionization_Penalty>  (1) 
0.12765993639139714

>  <r_epik_Ionization_Penalty_Charging>  (1) 
0.058121654325050918

>  <r_epik_Ionization_Penalty_Neutral>  (1) 
0.069538282066346213

>  <r_epik_State_Penalty>  (1) 
0.13701587076177221

>  <r_glide_ring_energy>  (1) 
0.68305203791256597

>  <r_i_docking_score>  (1) 
-3.3333961117219917

>  <r_i_glide_ecoul>  (1) 
2.5168126521121073

>  <r_i_glide_eff_state_penalty>  (1) 
0.13701587076177221

>  <r_i_glide_einternal>  (1) 
22.922321642643858

>  <r_i_glide_emodel>  (1) 
-6.4362196099019577

>  <r_i_glide_emodel_strain>  (1) 
7.8924864776647468

>  <r_i_glide_energy>  (1) 
-16.64464791773602

>  <r_i_glide_erotb>  (1) 
0.66875336800380736

>  <r_i_glide_esite>  (1) 
0

>  <r_i_glide_evdw>  (1) 
-19.161460569848128

>  <r_i_glide_gscore>  (1) 
-3.470411982483764

>  <r_i_glide_gscore_strain>  (1) 
0.97312161941618669

>  <r_i_glide_hbond>  (1) 
0

>  <r_i_glide_ligand_efficiency>  (1) 
-0.092594336436721991

>  <r_i_glide_ligand_efficiency_ln>  (1) 
-0.72725697362227903

>  <r_i_glide_ligand_efficiency_sa>  (1) 
-0.30573976257372898

>  <r_i_glide_lipo>  (1) 
-3.6737469155654829

>  <r_i_glide_metal>  (1) 
-0

>  <r_i_glide_rewards>  (1) 
-0.85798892366268509

>  <r_lp_Energy>  (1) 
69.514248999999992

>  <r_lp_tautomer_probability>  (1) 
0.99995000000000001

>  <s_epik_Chemistry_Notes>  (1) 
This compound contains an acetal/aminal-like group ( X-CH(R)-Y where X, Y are N, S, or O) that may be acid/base labile, releasing an aldehyde.

>  <s_epik_cmdline>  (1) 
J2VwaWtfcHl0aG9uJywgJy1waHQnLCAnMS4wJywgJy1waCcsICc3LjQnLCAnLXRuJywgJzgnLCAnLW1hJywgJzUwMCcsICctaW1hZScsICc8aW5maWxlLm1hZT4nLCAnLW9tYWUnLCAnPG91dGZpbGUubWFlPic=

>  <s_epik_input>  (1) 
Tz1DKFtDSDNdKWMoYzFbT0hdKVtjSF1bY0hdYyhjMTIpYzNjKFtjSF1uMilbQ0gyXVtDSDJdTihbQ0gyXTMpW0NIMl1bQ0gyXVtDSDJdW0NIMl1OKFtDSDJdW09IXSlbQ0BIXShbQ0gzXSlbQ0BASF0oW0NIMl1bTkgyXSlbQ0BIXTRbQ0gyXVtDSF09W0NIXVtDSF09W0NIXTQ=

>  <s_glide_docking_method>  (1) 
confgen

>  <s_i_glide_gridfile>  (1) 
gpcr_drd2_6luq_protein_autoprepared_prepared

>  <s_lp_Force_Field>  (1) 
S-OPLS

>  <s_lp_Variant>  (1) 
DiffSBDD_76_num_sample_100-1

>  <s_m_source_file>  (1) 
generated__ligand_DiffSBDD_2026-05-06_prepared.sdf

>  <GenAI_Model>  (1) 
DiffSBDD

>  <Protein>  (1) 
generic_title2

$$$$
DiffSBDD_18_num_sample_100
     RDKit          3D

  0  0  0  0  0  0  0  0  0  0999 V3000
M  V30 BEGIN CTAB
M  V30 COUNTS 53 56 0 0 1
M  V30 BEGIN ATOM
M  V30 1 C 6.647723 5.781702 -18.573321 0
M  V30 2 O 4.643184 4.139263 -22.921176 0 CHG=-1
M  V30 3 O 6.544492 2.765407 -13.816325 0
M  V30 4 C 5.744134 8.013233 -21.313887 0
M  V30 5 C 8.026534 5.491614 -13.798353 0 CFG=2
M  V30 6 O 5.877679 7.764505 -19.835630 0
M  V30 7 C 5.968575 1.480736 -13.607249 0
M  V30 8 C 9.767919 6.786132 -11.596225 0
M  V30 9 S 6.637207 5.607166 -14.956631 0
M  V30 10 C 7.911723 4.693096 -15.872629 0 CFG=2
M  V30 11 C 6.961169 6.851918 -12.073607 0
M  V30 12 C 4.507890 5.380333 -22.918378 0
M  V30 13 S 7.471057 3.520584 -17.201955 0
M  V30 14 C 8.430341 4.168463 -14.505737 0 CFG=2
M  V30 15 C 8.850731 5.548571 -11.514480 0
M  V30 16 O 3.434814 5.998301 -22.756433 0
M  V30 17 C 7.177805 4.648030 -21.104912 0
M  V30 18 N 6.352611 6.813508 -21.911212 0
M  V30 19 C 6.670117 5.949518 -20.947746 0
M  V30 20 C 7.166168 4.461058 -18.663669 0
M  V30 21 O 9.034787 7.969142 -11.319176 0
M  V30 22 C 8.635039 2.381936 -12.694771 0
M  V30 23 C 5.776982 6.221279 -23.123126 0
M  V30 24 C 6.413174 6.485982 -19.762473 0
M  V30 25 C 7.432186 3.888992 -19.939522 0
M  V30 26 C 7.857618 8.113132 -12.111281 0
M  V30 27 N 7.671052 5.615002 -12.386359 0
M  V30 28 C 7.956994 2.784084 -14.004385 0 CFG=1
M  V30 29 H 6.429050 6.229780 -17.619208 0
M  V30 30 H 4.695666 8.092120 -21.604704 0
M  V30 31 H 6.308298 8.894755 -21.619342 0
M  V30 32 H 8.730919 6.265026 -14.063715 0
M  V30 33 H 4.890192 1.581902 -13.491877 0
M  V30 34 H 6.159522 0.820971 -14.454244 0
M  V30 35 H 6.329039 0.998054 -12.699596 0
M  V30 36 H 10.567813 6.702191 -10.860311 0
M  V30 37 H 10.248479 6.866832 -12.571249 0
M  V30 38 H 8.619327 5.413834 -16.288173 0
M  V30 39 H 6.104331 6.989374 -12.730529 0
M  V30 40 H 6.516474 6.733024 -11.091669 0
M  V30 41 H 9.515364 4.169301 -14.549382 0
M  V30 42 H 8.516735 5.429629 -10.482744 0
M  V30 43 H 9.455137 4.673729 -11.740258 0
M  V30 44 H 7.366913 4.236539 -22.085368 0
M  V30 45 H 9.711270 2.550058 -12.691445 0
M  V30 46 H 8.214756 2.969688 -11.891664 0
M  V30 47 H 8.472365 1.330236 -12.476464 0
M  V30 48 H 5.533883 7.031170 -23.810863 0
M  V30 49 H 6.529969 5.622113 -23.635154 0
M  V30 50 H 7.821633 2.884676 -20.017843 0
M  V30 51 H 7.298578 8.970102 -11.742334 0
M  V30 52 H 8.146508 8.344266 -13.133770 0
M  V30 53 H 8.213803 2.039216 -14.759502 0
M  V30 END ATOM
M  V30 BEGIN BOND
M  V30 1 1 6 4
M  V30 2 1 7 3
M  V30 3 1 9 5
M  V30 4 1 10 9
M  V30 5 1 12 2
M  V30 6 1 13 10
M  V30 7 1 14 5
M  V30 8 1 14 10
M  V30 9 1 15 8
M  V30 10 2 16 12
M  V30 11 1 18 4
M  V30 12 1 19 17
M  V30 13 1 19 18
M  V30 14 2 20 1
M  V30 15 1 20 13
M  V30 16 1 21 8
M  V30 17 1 23 12
M  V30 18 1 23 18
M  V30 19 1 24 1
M  V30 20 1 24 6
M  V30 21 2 24 19
M  V30 22 2 25 17
M  V30 23 1 25 20
M  V30 24 1 26 11
M  V30 25 1 26 21
M  V30 26 1 27 5
M  V30 27 1 27 11
M  V30 28 1 27 15
M  V30 29 1 28 3
M  V30 30 1 28 14
M  V30 31 1 28 22
M  V30 32 1 29 1
M  V30 33 1 30 4
M  V30 34 1 31 4
M  V30 35 1 5 32 CFG=3
M  V30 36 1 33 7
M  V30 37 1 34 7
M  V30 38 1 35 7
M  V30 39 1 36 8
M  V30 40 1 37 8
M  V30 41 1 10 38 CFG=3
M  V30 42 1 39 11
M  V30 43 1 40 11
M  V30 44 1 14 41 CFG=3
M  V30 45 1 42 15
M  V30 46 1 43 15
M  V30 47 1 44 17
M  V30 48 1 45 22
M  V30 49 1 46 22
M  V30 50 1 47 22
M  V30 51 1 48 23
M  V30 52 1 49 23
M  V30 53 1 50 25
M  V30 54 1 51 26
M  V30 55 1 52 26
M  V30 56 1 28 53 CFG=3
M  V30 END BOND
M  V30 END CTAB
M  END
>  <i_epik_Tot_Q>  (1) 
-1

>  <i_epik_Tot_abs_Q>  (1) 
1

>  <i_i_glide_confnum>  (1) 
69

>  <i_i_glide_lignum>  (1) 
30

>  <i_i_glide_posenum>  (1) 
400

>  <i_i_glide_rotatable_bonds>  (1) 
7

>  <i_lp_mmshare_version>  (1) 
72125

>  <i_m_source_file_index>  (1) 
19

>  <i_f3d_flags>  (1) 
0

>  <num_sample>  (1) 
100

>  <b_lp_Chiralities_Consistent>  (1) 
1

>  <r_epik_Charging_Adjusted_Penalty>  (1) 
0.00040573195342964225

>  <r_epik_Ionization_Penalty>  (1) 
0.00047194480807020967

>  <r_epik_Ionization_Penalty_Charging>  (1) 
0.00040573195342964225

>  <r_epik_Ionization_Penalty_Neutral>  (1) 
6.6212854640567391e-05

>  <r_epik_State_Penalty>  (1) 
-0

>  <r_glide_ring_energy>  (1) 
0.0037260038471908338

>  <r_i_docking_score>  (1) 
-3.3291963293117597

>  <r_i_glide_ecoul>  (1) 
-3.5733368850233322

>  <r_i_glide_eff_state_penalty>  (1) 
-0

>  <r_i_glide_einternal>  (1) 
4.3621707967652057

>  <r_i_glide_emodel>  (1) 
-30.527581016698182

>  <r_i_glide_emodel_strain>  (1) 
0

>  <r_i_glide_energy>  (1) 
-27.299912211689765

>  <r_i_glide_erotb>  (1) 
0.54773737594122907

>  <r_i_glide_esite>  (1) 
0

>  <r_i_glide_evdw>  (1) 
-23.726575326666435

>  <r_i_glide_gscore>  (1) 
-3.3291963293117597

>  <r_i_glide_gscore_strain>  (1) 
0

>  <r_i_glide_hbond>  (1) 
-0.16

>  <r_i_glide_ligand_efficiency>  (1) 
-0.11889986890399142

>  <r_i_glide_ligand_efficiency_ln>  (1) 
-0.76847626225686183

>  <r_i_glide_ligand_efficiency_sa>  (1) 
-0.36105003067132241

>  <r_i_glide_lipo>  (1) 
-1.0446278938392406

>  <r_i_glide_metal>  (1) 
-0

>  <r_i_glide_rewards>  (1) 
-0.94997651232692615

>  <r_lp_Energy>  (1) 
43.419910999999999

>  <r_lp_tautomer_probability>  (1) 
1

>  <s_epik_Chemistry_Notes>  (1) 
This compound contains an acetal/aminal-like group ( X-CH(R)-Y where X, Y are N, S, or O) that may be acid/base labile, releasing an aldehyde.

>  <s_epik_cmdline>  (1) 
J2VwaWtfcHl0aG9uJywgJy1waHQnLCAnMS4wJywgJy1waCcsICc3LjQnLCAnLXRuJywgJzgnLCAnLW1hJywgJzUwMCcsICctaW1hZScsICc8aW5maWxlLm1hZT4nLCAnLW9tYWUnLCAnPG91dGZpbGUubWFlPic=

>  <s_epik_input>  (1) 
W09IXUMoPU8pW0NIMl1OMVtDSDJdT2MoYzEyKVtjSF1jKFtjSF1bY0hdMilTW0NASF0oW0NAQEhdM1tDQEBIXShbQ0gzXSlPW0NIM10pU1tDQEhdM040W0NIMl1bQ0gyXU9bQ0gyXVtDSDJdNA==

>  <s_glide_docking_method>  (1) 
confgen

>  <s_i_glide_gridfile>  (1) 
gpcr_drd2_6luq_protein_autoprepared_prepared

>  <s_lp_Force_Field>  (1) 
S-OPLS

>  <s_lp_Variant>  (1) 
DiffSBDD_18_num_sample_100-1

>  <s_m_source_file>  (1) 
generated__ligand_DiffSBDD_2026-05-06_prepared.sdf

>  <GenAI_Model>  (1) 
DiffSBDD

>  <Protein>  (1) 
generic_title2

$$$$
DiffSBDD_14_num_sample_100
     RDKit          3D

  0  0  0  0  0  0  0  0  0  0999 V3000
M  V30 BEGIN CTAB
M  V30 COUNTS 60 64 0 0 1
M  V30 BEGIN ATOM
M  V30 1 C 6.725002 0.219141 -19.830215 0 CFG=1
M  V30 2 O 16.260604 6.716167 -17.796442 0 CHG=-1
M  V30 3 C 6.087945 -4.771073 -17.683723 0
M  V30 4 C 10.946061 3.231311 -17.953367 0 CFG=2
M  V30 5 C 13.135798 5.135166 -17.253379 0 CFG=1
M  V30 6 C 12.440667 2.900571 -18.181938 0
M  V30 7 S 6.231592 1.046030 -18.287958 0
M  V30 8 S 15.019365 3.240722 -17.082949 0
M  V30 9 O 17.614985 4.975698 -17.491519 0
M  V30 10 C 9.203817 0.277528 -20.111740 0 CFG=2
M  V30 11 C 11.673139 5.535644 -17.014082 0
M  V30 12 C 10.261971 1.022261 -19.240747 0 CFG=2
M  V30 13 C 6.467634 -2.158273 -18.708689 0 CFG=1
M  V30 14 C 10.485311 0.117342 -18.013765 0
M  V30 15 C 9.966254 2.510460 -18.914959 0
M  V30 16 C 7.877530 0.979569 -20.509314 0
M  V30 17 C 14.162864 5.701317 -16.269683 0
M  V30 18 C 5.193187 -0.250030 -17.566841 0
M  V30 19 C 5.980697 -1.552439 -17.375480 0
M  V30 20 C 9.237419 -0.739922 -17.890939 0
M  V30 21 C 13.265345 3.627571 -17.116897 0 CFG=1
M  V30 22 C 7.292629 -1.193223 -19.609816 0 CFG=2
M  V30 23 C 16.539594 5.591823 -17.325731 0
M  V30 24 C 15.474553 4.894374 -16.468962 0 CFG=2
M  V30 25 C 8.797706 -0.988752 -19.338745 0 CFG=1
M  V30 26 C 10.730469 4.768324 -17.972129 0
M  V30 27 S 7.356506 -3.734563 -18.465399 0
M  V30 28 H 5.847367 0.182405 -20.477265 0
M  V30 29 H 6.435117 -5.802464 -17.624467 0
M  V30 30 H 5.162468 -4.748010 -18.258734 0
M  V30 31 H 5.877606 -4.432677 -16.669318 0
M  V30 32 H 10.695344 2.897071 -16.946818 0
M  V30 33 H 13.425796 5.435817 -18.261367 0
M  V30 34 H 12.627418 1.831559 -18.096072 0
M  V30 35 H 12.753463 3.198854 -19.182619 0
M  V30 36 H 9.690999 -0.030773 -21.038528 0
M  V30 37 H 11.396202 5.326552 -15.979812 0
M  V30 38 H 11.564749 6.609976 -17.155589 0
M  V30 39 H 11.193178 1.021110 -19.809242 0
M  V30 40 H 5.569937 -2.413553 -19.274009 0
M  V30 41 H 11.343990 -0.530087 -18.192545 0
M  V30 42 H 10.687541 0.660681 -17.093227 0
M  V30 43 H 8.970406 2.593269 -18.478363 0
M  V30 44 H 9.935877 3.058935 -19.857721 0
M  V30 45 H 7.758235 0.887040 -21.589188 0
M  V30 46 H 7.837369 2.048542 -20.311467 0
M  V30 47 H 14.275076 6.780057 -16.382510 0
M  V30 48 H 13.812424 5.543456 -15.248938 0
M  V30 49 H 4.815710 0.099045 -16.605103 0
M  V30 50 H 4.325563 -0.413449 -18.207662 0
M  V30 51 H 6.812201 -1.398862 -16.691710 0
M  V30 52 H 5.321929 -2.257140 -16.869093 0
M  V30 53 H 9.416514 -1.664017 -17.339133 0
M  V30 54 H 8.500673 -0.164226 -17.339131 0
M  V30 55 H 12.896658 3.347314 -16.136209 0
M  V30 56 H 7.266695 -1.659290 -20.596488 0
M  V30 57 H 15.934331 4.761847 -15.491824 0
M  V30 58 H 9.361144 -1.830697 -19.740644 0
M  V30 59 H 10.884281 5.138043 -18.986049 0
M  V30 60 H 9.696480 4.999835 -17.717195 0
M  V30 END ATOM
M  V30 BEGIN BOND
M  V30 1 1 6 4
M  V30 2 1 7 1
M  V30 3 1 11 5
M  V30 4 1 12 10
M  V30 5 1 14 12
M  V30 6 1 15 4
M  V30 7 1 15 12
M  V30 8 1 16 1
M  V30 9 1 16 10
M  V30 10 1 17 5
M  V30 11 1 18 7
M  V30 12 1 19 13
M  V30 13 1 19 18
M  V30 14 1 20 14
M  V30 15 1 21 5
M  V30 16 1 21 6
M  V30 17 1 21 8
M  V30 18 1 22 1
M  V30 19 1 22 13
M  V30 20 1 23 2
M  V30 21 2 23 9
M  V30 22 1 24 8
M  V30 23 1 24 17
M  V30 24 1 24 23
M  V30 25 1 25 10
M  V30 26 1 25 20
M  V30 27 1 25 22
M  V30 28 1 26 4
M  V30 29 1 26 11
M  V30 30 1 27 3
M  V30 31 1 27 13
M  V30 32 1 1 28 CFG=3
M  V30 33 1 29 3
M  V30 34 1 30 3
M  V30 35 1 31 3
M  V30 36 1 4 32 CFG=1
M  V30 37 1 5 33 CFG=3
M  V30 38 1 34 6
M  V30 39 1 35 6
M  V30 40 1 10 36 CFG=3
M  V30 41 1 37 11
M  V30 42 1 38 11
M  V30 43 1 12 39 CFG=3
M  V30 44 1 13 40 CFG=3
M  V30 45 1 41 14
M  V30 46 1 42 14
M  V30 47 1 43 15
M  V30 48 1 44 15
M  V30 49 1 45 16
M  V30 50 1 46 16
M  V30 51 1 47 17
M  V30 52 1 48 17
M  V30 53 1 49 18
M  V30 54 1 50 18
M  V30 55 1 51 19
M  V30 56 1 52 19
M  V30 57 1 53 20
M  V30 58 1 54 20
M  V30 59 1 21 55 CFG=1
M  V30 60 1 22 56 CFG=3
M  V30 61 1 24 57 CFG=1
M  V30 62 1 25 58 CFG=3
M  V30 63 1 59 26
M  V30 64 1 60 26
M  V30 END BOND
M  V30 END CTAB
M  END
>  <i_epik_Tot_Q>  (1) 
-1

>  <i_epik_Tot_abs_Q>  (1) 
1

>  <i_i_glide_confnum>  (1) 
4

>  <i_i_glide_lignum>  (1) 
23

>  <i_i_glide_posenum>  (1) 
322

>  <i_i_glide_rotatable_bonds>  (1) 
4

>  <i_lp_mmshare_version>  (1) 
72125

>  <i_m_source_file_index>  (1) 
15

>  <i_f3d_flags>  (1) 
0

>  <num_sample>  (1) 
100

>  <b_lp_Chiralities_Consistent>  (1) 
1

>  <r_epik_Charging_Adjusted_Penalty>  (1) 
0.00032590960807401398

>  <r_epik_Ionization_Penalty>  (1) 
0.00032590960807401398

>  <r_epik_Ionization_Penalty_Charging>  (1) 
0.00032590960807401398

>  <r_epik_Ionization_Penalty_Neutral>  (1) 
0

>  <r_epik_State_Penalty>  (1) 
-0

>  <r_glide_ring_energy>  (1) 
0

>  <r_i_docking_score>  (1) 
-3.3180132952036732

>  <r_i_glide_ecoul>  (1) 
-4.3643576767945866

>  <r_i_glide_eff_state_penalty>  (1) 
-0

>  <r_i_glide_einternal>  (1) 
3.7793375553565998

>  <r_i_glide_emodel>  (1) 
-28.762778007857179

>  <r_i_glide_emodel_strain>  (1) 
0.84500768536774729

>  <r_i_glide_energy>  (1) 
-27.136754938077686

>  <r_i_glide_erotb>  (1) 
0.21895561960484411

>  <r_i_glide_esite>  (1) 
0

>  <r_i_glide_evdw>  (1) 
-22.7723972612831

>  <r_i_glide_gscore>  (1) 
-3.3180132952036732

>  <r_i_glide_gscore_strain>  (1) 
0

>  <r_i_glide_hbond>  (1) 
-0.16

>  <r_i_glide_ligand_efficiency>  (1) 
-0.12288938130383975

>  <r_i_glide_ligand_efficiency_ln>  (1) 
-0.77237879339907167

>  <r_i_glide_ligand_efficiency_sa>  (1) 
-0.36866814391151931

>  <r_i_glide_lipo>  (1) 
-1.0440235256514407

>  <r_i_glide_metal>  (1) 
-0

>  <r_i_glide_rewards>  (1) 
-0.53967187457373289

>  <r_lp_Energy>  (1) 
33.503946999999997

>  <r_lp_tautomer_probability>  (1) 
1

>  <s_epik_cmdline>  (1) 
J2VwaWtfcHl0aG9uJywgJy1waHQnLCAnMS4wJywgJy1waCcsICc3LjQnLCAnLXRuJywgJzgnLCAnLW1hJywgJzUwMCcsICctaW1hZScsICc8aW5maWxlLm1hZT4nLCAnLW9tYWUnLCAnPG91dGZpbGUubWFlPic=

>  <s_epik_input>  (1) 
UzFbQ0gyXVtDSDJdW0NASF0oU1tDSDNdKVtDQEBIXShbQ0BASF0xMilbQ0BIXTNbQ0BASF0oW0NIMl0yKVtDQEhdKFtDSDJdW0NIMl0zKVtDSDJdW0NASF0oW0NIMl1bQ0gyXTQpW0NIMl1bQ0BIXShbQ0BASF00NSlTW0NASF0oW0NIMl01KUMoPU8pW09IXQ==

>  <s_glide_docking_method>  (1) 
confgen

>  <s_i_glide_gridfile>  (1) 
gpcr_drd2_6luq_protein_autoprepared_prepared

>  <s_lp_Force_Field>  (1) 
S-OPLS

>  <s_lp_Variant>  (1) 
DiffSBDD_14_num_sample_100-1

>  <s_m_source_file>  (1) 
generated__ligand_DiffSBDD_2026-05-06_prepared.sdf

>  <GenAI_Model>  (1) 
DiffSBDD

>  <Protein>  (1) 
generic_title2

$$$$
DiffSBDD_6_num_sample_100
     RDKit          3D

  0  0  0  0  0  0  0  0  0  0999 V3000
M  V30 BEGIN CTAB
M  V30 COUNTS 64 67 0 0 1
M  V30 BEGIN ATOM
M  V30 1 N 7.813732 3.642207 -15.821075 0
M  V30 2 N 9.518576 5.831578 -9.588669 0
M  V30 3 C 10.009351 7.147429 -9.531120 0
M  V30 4 C 10.265583 7.375968 -12.080288 0
M  V30 5 C 12.148022 5.992803 -16.464973 0
M  V30 6 N 7.615240 4.740741 -12.146745 0
M  V30 7 C 8.843974 4.046504 -16.707423 0
M  V30 8 F 10.619912 8.969087 -8.136223 0
M  V30 9 C 6.219291 2.186597 -12.691679 0
M  V30 10 C 7.321423 2.264721 -15.784001 0
M  V30 11 C 8.233932 6.007067 -11.701406 0 CFG=1
M  V30 12 F 11.908626 6.249546 -15.182900 0
M  V30 13 C 8.042560 3.968717 -13.352051 0 CFG=2
M  V30 14 C 9.181519 5.190926 -10.851725 0 CFG=2
M  V30 15 C 8.090415 4.169302 -10.885491 0
M  V30 16 F 13.136099 5.101040 -16.530581 0
M  V30 17 C 9.821718 5.122577 -19.464435 0
M  V30 18 C 8.899445 4.192303 -19.225825 0
M  V30 19 C 10.914701 5.448164 -17.183592 0
M  V30 20 C 7.359899 4.450700 -14.674750 0 CFG=1
M  V30 21 F 8.234831 4.969301 -7.891990 0
M  V30 22 C 8.846691 3.333080 -18.024452 0
M  V30 23 C 10.896533 5.517213 -18.554510 0
M  V30 24 C 8.925161 6.912955 -12.636862 0
M  V30 25 C 7.094829 5.941627 -14.989700 0
M  V30 26 F 9.034839 7.685447 -7.424600 0
M  V30 27 C 10.337217 7.871753 -10.632177 0
M  V30 28 C 7.649616 2.434309 -13.214893 0 CFG=2
M  V30 29 C 9.783279 4.952767 -16.353327 0
M  V30 30 C 10.170569 7.717390 -8.120343 0
M  V30 31 C 7.847904 1.595955 -14.504715 0
M  V30 32 C 9.458961 4.969512 -8.412543 0
M  V30 33 F 12.586091 7.117424 -17.031701 0
M  V30 34 H 10.535561 8.169300 -12.753336 0
M  V30 35 H 11.035363 6.614833 -12.215822 0
M  V30 36 H 5.460892 2.471640 -13.419264 0
M  V30 37 H 6.066634 1.129628 -12.469080 0
M  V30 38 H 6.000680 2.731222 -11.775106 0
M  V30 39 H 6.235002 2.257893 -15.795407 0
M  V30 40 H 7.635664 1.632808 -16.609699 0
M  V30 41 H 7.497188 6.531880 -11.091444 0
M  V30 42 H 9.126106 4.039640 -13.454583 0
M  V30 43 H 10.058277 4.829379 -11.392611 0
M  V30 44 H 7.332799 4.209923 -10.100133 0
M  V30 45 H 8.634844 3.254480 -11.033173 0
M  V30 46 H 9.781497 5.619607 -20.423460 0
M  V30 47 H 8.156988 3.989141 -19.984762 0
M  V30 48 H 6.325716 4.132996 -14.547410 0
M  V30 49 H 9.669844 2.618013 -18.051387 0
M  V30 50 H 7.929906 2.774478 -18.197169 0
M  V30 51 H 11.763967 5.964093 -19.017584 0
M  V30 52 H 8.288933 7.746007 -12.937478 0
M  V30 53 H 9.195578 6.331660 -13.492125 0
M  V30 54 H 6.600325 6.432906 -14.151603 0
M  V30 55 H 7.967769 6.528066 -15.250731 0
M  V30 56 H 6.414087 6.023661 -15.836922 0
M  V30 57 H 10.716872 8.871492 -10.499279 0
M  V30 58 H 8.322766 1.954482 -12.508137 0
M  V30 59 H 9.728210 5.336467 -15.351613 0
M  V30 60 H 10.927274 7.171712 -7.559281 0
M  V30 61 H 7.376514 0.618487 -14.393173 0
M  V30 62 H 8.902066 1.369301 -14.630682 0
M  V30 63 H 9.730587 3.951032 -8.685330 0
M  V30 64 H 10.145539 5.262111 -7.623481 0
M  V30 END ATOM
M  V30 BEGIN BOND
M  V30 1 1 3 2
M  V30 2 1 7 1
M  V30 3 1 10 1
M  V30 4 1 11 6
M  V30 5 1 12 5
M  V30 6 1 13 6
M  V30 7 1 14 2
M  V30 8 1 14 11
M  V30 9 1 15 6
M  V30 10 1 15 14
M  V30 11 1 16 5
M  V30 12 2 18 17
M  V30 13 1 19 5
M  V30 14 1 20 1
M  V30 15 1 20 13
M  V30 16 1 22 7
M  V30 17 1 22 18
M  V30 18 1 23 17
M  V30 19 2 23 19
M  V30 20 1 24 4
M  V30 21 1 24 11
M  V30 22 1 25 20
M  V30 23 2 27 3
M  V30 24 1 27 4
M  V30 25 1 28 9
M  V30 26 1 28 13
M  V30 27 2 29 7
M  V30 28 1 29 19
M  V30 29 1 30 3
M  V30 30 1 30 8
M  V30 31 1 30 26
M  V30 32 1 31 10
M  V30 33 1 31 28
M  V30 34 1 32 2
M  V30 35 1 32 21
M  V30 36 1 33 5
M  V30 37 1 34 4
M  V30 38 1 35 4
M  V30 39 1 36 9
M  V30 40 1 37 9
M  V30 41 1 38 9
M  V30 42 1 39 10
M  V30 43 1 40 10
M  V30 44 1 11 41 CFG=1
M  V30 45 1 13 42 CFG=3
M  V30 46 1 14 43 CFG=3
M  V30 47 1 44 15
M  V30 48 1 45 15
M  V30 49 1 46 17
M  V30 50 1 47 18
M  V30 51 1 20 48 CFG=1
M  V30 52 1 49 22
M  V30 53 1 50 22
M  V30 54 1 51 23
M  V30 55 1 52 24
M  V30 56 1 53 24
M  V30 57 1 54 25
M  V30 58 1 55 25
M  V30 59 1 56 25
M  V30 60 1 57 27
M  V30 61 1 28 58 CFG=1
M  V30 62 1 59 29
M  V30 63 1 60 30
M  V30 64 1 61 31
M  V30 65 1 62 31
M  V30 66 1 63 32
M  V30 67 1 64 32
M  V30 END BOND
M  V30 END CTAB
M  END
>  <i_epik_Tot_Q>  (1) 
0

>  <i_epik_Tot_abs_Q>  (1) 
0

>  <i_i_glide_confnum>  (1) 
16

>  <i_i_glide_lignum>  (1) 
9

>  <i_i_glide_posenum>  (1) 
60

>  <i_i_glide_rotatable_bonds>  (1) 
5

>  <i_lp_mmshare_version>  (1) 
72125

>  <i_m_source_file_index>  (1) 
7

>  <i_f3d_flags>  (1) 
0

>  <num_sample>  (1) 
100

>  <b_lp_Chiralities_Consistent>  (1) 
1

>  <r_epik_Charging_Adjusted_Penalty>  (1) 
0.092622925798260772

>  <r_epik_Ionization_Penalty>  (1) 
0.092625697702171175

>  <r_epik_Ionization_Penalty_Charging>  (1) 
0.00035560143118834142

>  <r_epik_Ionization_Penalty_Neutral>  (1) 
0.092270096270982829

>  <r_epik_State_Penalty>  (1) 
0.092267324367072426

>  <r_glide_ring_energy>  (1) 
0.06686130423409592

>  <r_i_docking_score>  (1) 
-3.311715300036941

>  <r_i_glide_ecoul>  (1) 
0.57166066096636481

>  <r_i_glide_eff_state_penalty>  (1) 
0.092267324367072426

>  <r_i_glide_einternal>  (1) 
0.48126259150373585

>  <r_i_glide_emodel>  (1) 
-23.558437338351986

>  <r_i_glide_emodel_strain>  (1) 
0.84882220914462891

>  <r_i_glide_energy>  (1) 
-19.130923157030043

>  <r_i_glide_erotb>  (1) 
0.17904337208641333

>  <r_i_glide_esite>  (1) 
-0.15719745140193947

>  <r_i_glide_evdw>  (1) 
-19.702583817996409

>  <r_i_glide_gscore>  (1) 
-3.4039826244040134

>  <r_i_glide_gscore_strain>  (1) 
0

>  <r_i_glide_hbond>  (1) 
0

>  <r_i_glide_ligand_efficiency>  (1) 
-0.10035500909202852

>  <r_i_glide_ligand_efficiency_ln>  (1) 
-0.73650833558408746

>  <r_i_glide_ligand_efficiency_sa>  (1) 
-0.32189213684972479

>  <r_i_glide_lipo>  (1) 
-1.6548806878833562

>  <r_i_glide_metal>  (1) 
-0

>  <r_i_glide_rewards>  (1) 
-0.87156776545026526

>  <r_lp_Energy>  (1) 
53.872712999999997

>  <s_epik_Chemistry_Notes>  (1) 
This compound has an imine and may undergo hydrolysis.

>  <s_epik_cmdline>  (1) 
J2VwaWtfcHl0aG9uJywgJy1waHQnLCAnMS4wJywgJy1waCcsICc3LjQnLCAnLXRuJywgJzgnLCAnLW1hJywgJzUwMCcsICctaW1hZScsICc8aW5maWxlLm1hZT4nLCAnLW9tYWUnLCAnPG91dGZpbGUubWFlPic=

>  <s_epik_input>  (1) 
W0NIMl0xW0NIXT1bQ0hdW0NIXT1DKEMoRikoRilGKVtDSF09QzFOMltDSDJdW0NIMl1bQ0BIXShbQ0gzXSlbQ0BASF0oW0NASF0yW0NIM10pTjNbQ0gyXVtDQEBIXShbQ0BIXTM0KU4oW0NIMl1GKUMoW0NIXShGKUYpPVtDSF1bQ0gyXVtDSDJdNA==

>  <s_glide_docking_method>  (1) 
confgen

>  <s_i_glide_gridfile>  (1) 
gpcr_drd2_6luq_protein_autoprepared_prepared

>  <s_lp_Force_Field>  (1) 
S-OPLS

>  <s_lp_Variant>  (1) 
DiffSBDD_6_num_sample_100-1

>  <s_m_source_file>  (1) 
generated__ligand_DiffSBDD_2026-05-06_prepared.sdf

>  <GenAI_Model>  (1) 
DiffSBDD

>  <Protein>  (1) 
generic_title2

$$$$
DiffSBDD_3_num_sample_100
     RDKit          3D

  0  0  0  0  0  0  0  0  0  0999 V3000
M  V30 BEGIN CTAB
M  V30 COUNTS 44 45 0 0 1
M  V30 BEGIN ATOM
M  V30 1 C 6.047033 2.397390 -20.265581 0
M  V30 2 O 4.234839 6.011401 -21.656614 0
M  V30 3 C 8.003723 1.538555 -16.281408 0
M  V30 4 O 6.985030 6.137304 -18.615309 0
M  V30 5 C 8.559404 1.293698 -17.712077 0
M  V30 6 C 5.424283 3.558586 -20.760345 0
M  V30 7 C 5.701936 1.045783 -20.861749 0
M  V30 8 C 6.520328 1.202897 -16.003574 0
M  V30 9 C 5.566680 -1.192344 -16.466272 0
M  V30 10 O 7.585586 1.331675 -18.750644 0
M  V30 11 C 7.635262 -2.030256 -17.887987 0
M  V30 12 C 5.733197 4.819262 -20.211467 0
M  V30 13 C 6.677092 4.918915 -19.157845 0
M  V30 14 C 9.358617 -0.020875 -17.883063 0
M  V30 15 C 8.825752 -1.309616 -17.216229 0
M  V30 16 C 6.200814 -0.205529 -15.462868 0
M  V30 17 C 6.988920 2.487695 -19.217487 0
M  V30 18 C 7.303945 3.754649 -18.663886 0
M  V30 19 C 5.063545 6.035798 -20.745078 0
M  V30 20 C 6.240469 -1.369858 -17.840655 0
M  V30 21 H 8.634862 1.064670 -15.531092 0
M  V30 22 H 8.120916 2.600366 -16.068324 0
M  V30 23 H 7.615051 6.088361 -17.912357 0
M  V30 24 H 9.290078 2.075363 -17.924297 0
M  V30 25 H 4.705280 3.480694 -21.563695 0
M  V30 26 H 5.435184 1.142874 -21.913599 0
M  V30 27 H 6.542402 0.354403 -20.809912 0
M  V30 28 H 4.860278 0.601933 -20.328540 0
M  V30 29 H 6.234801 1.886875 -15.206283 0
M  V30 30 H 5.873242 1.457339 -16.842222 0
M  V30 31 H 5.453882 -2.167663 -15.993841 0
M  V30 32 H 4.545385 -0.854769 -16.647935 0
M  V30 33 H 7.545196 -3.022288 -17.443952 0
M  V30 34 H 7.892865 -2.210379 -18.932001 0
M  V30 35 H 9.523341 -0.205319 -18.945936 0
M  V30 36 H 10.353610 0.154857 -17.470095 0
M  V30 37 H 8.664822 -1.164567 -16.154681 0
M  V30 38 H 9.651141 -2.021151 -17.235849 0
M  V30 39 H 7.057405 -0.630420 -14.946540 0
M  V30 40 H 5.466154 -0.089951 -14.663644 0
M  V30 41 H 8.020331 3.836144 -17.864945 0
M  V30 42 H 5.363709 6.966220 -20.262872 0
M  V30 43 H 5.580430 -2.013902 -18.423387 0
M  V30 44 H 6.218253 -0.436142 -18.383455 0
M  V30 END ATOM
M  V30 BEGIN BOND
M  V30 1 1 5 3
M  V30 2 2 6 1
M  V30 3 1 7 1
M  V30 4 1 8 3
M  V30 5 1 10 5
M  V30 6 1 12 6
M  V30 7 1 13 4
M  V30 8 2 13 12
M  V30 9 1 14 5
M  V30 10 1 15 11
M  V30 11 1 15 14
M  V30 12 1 16 8
M  V30 13 1 16 9
M  V30 14 1 17 1
M  V30 15 1 17 10
M  V30 16 1 18 13
M  V30 17 2 18 17
M  V30 18 2 19 2
M  V30 19 1 19 12
M  V30 20 1 20 9
M  V30 21 1 20 11
M  V30 22 1 21 3
M  V30 23 1 22 3
M  V30 24 1 23 4
M  V30 25 1 24 5
M  V30 26 1 25 6
M  V30 27 1 26 7
M  V30 28 1 27 7
M  V30 29 1 28 7
M  V30 30 1 29 8
M  V30 31 1 30 8
M  V30 32 1 31 9
M  V30 33 1 32 9
M  V30 34 1 33 11
M  V30 35 1 34 11
M  V30 36 1 35 14
M  V30 37 1 36 14
M  V30 38 1 37 15
M  V30 39 1 38 15
M  V30 40 1 39 16
M  V30 41 1 40 16
M  V30 42 1 41 18
M  V30 43 1 42 19
M  V30 44 1 43 20
M  V30 45 1 44 20
M  V30 END BOND
M  V30 END CTAB
M  END
>  <i_epik_Tot_Q>  (1) 
0

>  <i_epik_Tot_abs_Q>  (1) 
0

>  <i_i_glide_confnum>  (1) 
107

>  <i_i_glide_lignum>  (1) 
5

>  <i_i_glide_posenum>  (1) 
129

>  <i_i_glide_rotatable_bonds>  (1) 
4

>  <i_lp_mmshare_version>  (1) 
72125

>  <i_m_source_file_index>  (1) 
4

>  <i_f3d_flags>  (1) 
0

>  <num_sample>  (1) 
100

>  <b_lp_Chiralities_Consistent>  (1) 
1

>  <r_epik_Charging_Adjusted_Penalty>  (1) 
0.086869227700427584

>  <r_epik_Ionization_Penalty>  (1) 
0.086869227700427626

>  <r_epik_Ionization_Penalty_Charging>  (1) 
0

>  <r_epik_Ionization_Penalty_Neutral>  (1) 
0.086869227700427626

>  <r_epik_State_Penalty>  (1) 
0.086869227700427584

>  <r_glide_ring_energy>  (1) 
1.6418886826786672

>  <r_i_docking_score>  (1) 
-3.3098829317536804

>  <r_i_glide_ecoul>  (1) 
-1.3441968190211357

>  <r_i_glide_eff_state_penalty>  (1) 
0.086869227700427584

>  <r_i_glide_einternal>  (1) 
0.82109676208362004

>  <r_i_glide_emodel>  (1) 
-23.972208365330545

>  <r_i_glide_emodel_strain>  (1) 
0.034268921271660702

>  <r_i_glide_energy>  (1) 
-20.778332515722152

>  <r_i_glide_erotb>  (1) 
0.47104844352190411

>  <r_i_glide_esite>  (1) 
0

>  <r_i_glide_evdw>  (1) 
-19.434135696701016

>  <r_i_glide_gscore>  (1) 
-3.3967521594541079

>  <r_i_glide_gscore_strain>  (1) 
0

>  <r_i_glide_hbond>  (1) 
0

>  <r_i_glide_ligand_efficiency>  (1) 
-0.16549414658768402

>  <r_i_glide_ligand_efficiency_ln>  (1) 
-0.82835453057261921

>  <r_i_glide_ligand_efficiency_sa>  (1) 
-0.44922022694094937

>  <r_i_glide_lipo>  (1) 
-1.041515229791393

>  <r_i_glide_metal>  (1) 
-0

>  <r_i_glide_rewards>  (1) 
-1.6529490654963985

>  <r_lp_Energy>  (1) 
28.610363

>  <s_epik_cmdline>  (1) 
J2VwaWtfcHl0aG9uJywgJy1waHQnLCAnMS4wJywgJy1waCcsICc3LjQnLCAnLXRuJywgJzgnLCAnLW1hJywgJzUwMCcsICctaW1hZScsICc8aW5maWxlLm1hZT4nLCAnLW9tYWUnLCAnPG91dGZpbGUubWFlPic=

>  <s_epik_input>  (1) 
W0NIM11jMVtjSF1jKFtDSF09TyljKFtPSF0pW2NIXWMxT1tDSF0yW0NIMl1bQ0gyXVtDSDJdW0NIMl1bQ0gyXVtDSDJdW0NIMl1bQ0gyXTI=

>  <s_glide_docking_method>  (1) 
confgen

>  <s_i_glide_gridfile>  (1) 
gpcr_drd2_6luq_protein_autoprepared_prepared

>  <s_lp_Force_Field>  (1) 
S-OPLS

>  <s_lp_Variant>  (1) 
DiffSBDD_3_num_sample_100-1

>  <s_m_source_file>  (1) 
generated__ligand_DiffSBDD_2026-05-06_prepared.sdf

>  <GenAI_Model>  (1) 
DiffSBDD

>  <Protein>  (1) 
generic_title2

$$$$
DiffSBDD_76_num_sample_100
     RDKit          3D

  0  0  0  0  0  0  0  0  0  0999 V3000
M  V30 BEGIN CTAB
M  V30 COUNTS 78 81 0 0 1
M  V30 BEGIN ATOM
M  V30 1 C 6.132742 6.015867 -12.012503 0
M  V30 2 C 7.606940 5.590237 -16.978477 0
M  V30 3 C 9.638965 7.557213 -12.291724 0
M  V30 4 N 7.605883 6.058876 -12.106266 0 CFG=2 CHG=1
M  V30 5 C 8.329306 5.328028 -18.180361 0
M  V30 6 C 12.636060 7.725973 -3.024710 0
M  V30 7 C 11.820979 6.714183 -3.347423 0
M  V30 8 C 10.342675 8.333346 -6.724856 0 CFG=1
M  V30 9 C 6.248726 6.095854 -14.605358 0
M  V30 10 N 11.510373 8.461068 -9.072862 0 CFG=1 CHG=1
M  V30 11 C 12.796363 8.174408 -9.792769 0
M  V30 12 C 7.498098 5.479705 -14.525907 0
M  V30 13 C 10.773154 6.793569 -4.452225 0
M  V30 14 C 9.469564 4.606263 -15.701033 0
M  V30 15 C 5.735654 6.432999 -15.865588 0
M  V30 16 C 11.834806 6.569227 -7.529672 0
M  V30 17 C 5.462637 6.395807 -13.350529 0
M  V30 18 C 10.304037 8.069164 -9.878259 0
M  V30 19 N 6.383798 6.187698 -17.015235 0
M  V30 20 O 13.831414 8.569307 -8.929318 0
M  V30 21 O 10.038581 4.688333 -20.535930 0
M  V30 22 C 10.747583 8.185948 -5.247130 0 CFG=1
M  V30 23 C 9.618587 4.703138 -18.130777 0
M  V30 24 C 10.478063 7.138840 -11.093288 0
M  V30 25 N 8.756069 6.349021 -7.076410 0 CHG=1
M  V30 26 C 11.492682 8.001592 -7.641301 0 CFG=2
M  V30 27 O 7.773877 5.685324 -19.382811 0 CHG=-1
M  V30 28 C 8.113033 7.446149 -12.256883 0
M  V30 29 C 8.204311 5.217513 -15.731496 0
M  V30 30 C 8.069104 5.104843 -13.151657 0
M  V30 31 C 8.917934 7.813996 -7.004656 0
M  V30 32 C 12.601756 8.987066 -3.720084 0
M  V30 33 C 11.754090 9.217617 -4.733348 0
M  V30 34 C 10.412799 4.412279 -19.396656 0
M  V30 35 C 10.167806 4.349635 -16.882380 0
M  V30 36 C 11.766600 3.728324 -19.193457 0
M  V30 37 H 5.850820 4.999870 -11.734514 0
M  V30 38 H 5.771853 6.655585 -11.206100 0
M  V30 39 H 9.838283 8.588218 -12.550010 0
M  V30 40 H 10.034678 6.955552 -13.091661 0
M  V30 41 H 13.340998 7.594076 -2.221522 0
M  V30 42 H 11.881395 5.780547 -2.800992 0
M  V30 43 H 10.234308 9.399620 -6.886121 0
M  V30 44 H 12.882219 8.674076 -10.756682 0
M  V30 45 H 12.913224 7.101460 -9.891591 0
M  V30 46 H 9.834850 6.569225 -3.963860 0
M  V30 47 H 10.826177 5.869210 -4.993205 0
M  V30 48 H 9.915914 4.330753 -14.767193 0
M  V30 49 H 4.771275 6.912886 -15.953880 0
M  V30 50 H 11.686060 6.003381 -6.650180 0
M  V30 51 H 11.434937 5.990126 -8.355954 0
M  V30 52 H 12.891919 6.717256 -7.491476 0
M  V30 53 H 5.106238 7.426881 -13.353771 0
M  V30 54 H 4.634823 5.723625 -13.475252 0
M  V30 55 H 9.629449 7.456909 -9.310711 0
M  V30 56 H 9.747493 8.968568 -10.135176 0
M  V30 57 H 14.144771 9.447836 -9.167020 0
M  V30 58 H 9.834866 8.684204 -5.091314 0
M  V30 59 H 11.486551 7.083990 -11.493238 0
M  V30 60 H 10.233399 6.113055 -10.812323 0
M  V30 61 H 7.765744 6.218364 -7.272942 0
M  V30 62 H 9.314826 5.939791 -7.808194 0
M  V30 63 H 12.290675 8.574892 -7.165881 0
M  V30 64 H 7.705839 8.097820 -11.491750 0
M  V30 65 H 7.745487 7.873650 -13.189187 0
M  V30 66 H 9.147331 5.034723 -13.086124 0
M  V30 67 H 7.703271 4.108914 -12.903100 0
M  V30 68 H 8.207715 8.171660 -6.265252 0
M  V30 69 H 8.581044 8.326970 -7.891516 0
M  V30 70 H 13.279713 9.769319 -3.414632 0
M  V30 71 H 11.762437 10.178395 -5.225690 0
M  V30 72 H 11.135587 3.878609 -16.826151 0
M  V30 73 H 12.423373 4.343302 -18.577707 0
M  V30 74 H 11.633743 2.756092 -18.718626 0
M  V30 75 H 12.255603 3.570590 -20.153915 0
M  V30 76 H 8.976265 5.926111 -6.185456 0
M  V30 77 H 7.956840 5.736863 -11.217482 0
M  V30 78 H 11.473153 9.469147 -9.020046 0
M  V30 END ATOM
M  V30 BEGIN BOND
M  V30 1 1 4 1
M  V30 2 2 5 2
M  V30 3 2 7 6
M  V30 4 1 11 10
M  V30 5 2 12 9
M  V30 6 1 13 7
M  V30 7 1 15 9
M  V30 8 1 17 1
M  V30 9 1 17 9
M  V30 10 1 18 10
M  V30 11 1 19 2
M  V30 12 2 19 15
M  V30 13 1 20 11
M  V30 14 1 22 8
M  V30 15 1 22 13
M  V30 16 1 23 5
M  V30 17 1 24 3
M  V30 18 1 24 18
M  V30 19 1 26 8
M  V30 20 1 26 10
M  V30 21 1 26 16
M  V30 22 1 27 5
M  V30 23 1 28 3
M  V30 24 1 28 4
M  V30 25 1 29 2
M  V30 26 1 29 12
M  V30 27 2 29 14
M  V30 28 1 30 4
M  V30 29 1 30 12
M  V30 30 1 31 8
M  V30 31 1 31 25
M  V30 32 1 32 6
M  V30 33 1 33 22
M  V30 34 2 33 32
M  V30 35 2 34 21
M  V30 36 1 34 23
M  V30 37 1 35 14
M  V30 38 2 35 23
M  V30 39 1 36 34
M  V30 40 1 37 1
M  V30 41 1 38 1
M  V30 42 1 39 3
M  V30 43 1 40 3
M  V30 44 1 41 6
M  V30 45 1 42 7
M  V30 46 1 8 43 CFG=1
M  V30 47 1 44 11
M  V30 48 1 45 11
M  V30 49 1 46 13
M  V30 50 1 47 13
M  V30 51 1 48 14
M  V30 52 1 49 15
M  V30 53 1 50 16
M  V30 54 1 51 16
M  V30 55 1 52 16
M  V30 56 1 53 17
M  V30 57 1 54 17
M  V30 58 1 55 18
M  V30 59 1 56 18
M  V30 60 1 57 20
M  V30 61 1 22 58 CFG=1
M  V30 62 1 59 24
M  V30 63 1 60 24
M  V30 64 1 61 25
M  V30 65 1 62 25
M  V30 66 1 26 63 CFG=1
M  V30 67 1 64 28
M  V30 68 1 65 28
M  V30 69 1 66 30
M  V30 70 1 67 30
M  V30 71 1 68 31
M  V30 72 1 69 31
M  V30 73 1 70 32
M  V30 74 1 71 33
M  V30 75 1 72 35
M  V30 76 1 73 36
M  V30 77 1 74 36
M  V30 78 1 75 36
M  V30 79 1 76 25
M  V30 80 1 4 77 CFG=1
M  V30 81 1 10 78 CFG=1
M  V30 END BOND
M  V30 END CTAB
M  END
>  <i_epik_Tot_Q>  (1) 
2

>  <i_epik_Tot_abs_Q>  (1) 
4

>  <i_i_glide_confnum>  (1) 
1367

>  <i_i_glide_lignum>  (1) 
155

>  <i_i_glide_posenum>  (1) 
361

>  <i_i_glide_rotatable_bonds>  (1) 
12

>  <i_lp_mmshare_version>  (1) 
72125

>  <i_m_source_file_index>  (1) 
77

>  <i_f3d_flags>  (1) 
0

>  <num_sample>  (1) 
100

>  <b_lp_Chiralities_Consistent>  (1) 
1

>  <r_epik_Charging_Adjusted_Penalty>  (1) 
2.7385366295040585

>  <r_epik_Ionization_Penalty>  (1) 
1.4403839023663505

>  <r_epik_Ionization_Penalty_Charging>  (1) 
1.4088334024277234

>  <r_epik_Ionization_Penalty_Neutral>  (1) 
0.03155049993862722

>  <r_epik_State_Penalty>  (1) 
1.3297032270763354

>  <r_glide_ring_energy>  (1) 
0.68305203791256597

>  <r_i_docking_score>  (1) 
-3.3083361006820131

>  <r_i_glide_ecoul>  (1) 
-13.817510004789954

>  <r_i_glide_eff_state_penalty>  (1) 
1.3297032270763354

>  <r_i_glide_einternal>  (1) 
18.581571957613825

>  <r_i_glide_emodel>  (1) 
-19.037442045968103

>  <r_i_glide_emodel_strain>  (1) 
12.397495176166245

>  <r_i_glide_energy>  (1) 
-26.096685276840276

>  <r_i_glide_erotb>  (1) 
0.66625950385389887

>  <r_i_glide_esite>  (1) 
-0.14710943198317392

>  <r_i_glide_evdw>  (1) 
-12.279175272050322

>  <r_i_glide_gscore>  (1) 
-4.6380393277583485

>  <r_i_glide_gscore_strain>  (1) 
2.0993737940415613

>  <r_i_glide_hbond>  (1) 
-0.47212040147183032

>  <r_i_glide_ligand_efficiency>  (1) 
-0.091898225018944804

>  <r_i_glide_ligand_efficiency_ln>  (1) 
-0.72178955625661201

>  <r_i_glide_ligand_efficiency_sa>  (1) 
-0.30344125331510385

>  <r_i_glide_lipo>  (1) 
-3.0184723542214749

>  <r_i_glide_metal>  (1) 
-0

>  <r_i_glide_rewards>  (1) 
-1.0793851736563205

>  <r_lp_Energy>  (1) 
77.906815999999992

>  <r_lp_tautomer_probability>  (1) 
0.99995000000000001

>  <s_epik_Chemistry_Notes>  (1) 
This compound contains an acetal/aminal-like group ( X-CH(R)-Y where X, Y are N, S, or O) that may be acid/base labile, releasing an aldehyde.

>  <s_epik_cmdline>  (1) 
J2VwaWtfcHl0aG9uJywgJy1waHQnLCAnMS4wJywgJy1waCcsICc3LjQnLCAnLXRuJywgJzgnLCAnLW1hJywgJzUwMCcsICctaW1hZScsICc8aW5maWxlLm1hZT4nLCAnLW9tYWUnLCAnPG91dGZpbGUubWFlPic=

>  <s_epik_input>  (1) 
Tz1DKFtDSDNdKWMoYzFbT0hdKVtjSF1bY0hdYyhjMTIpYzNjKFtjSF1uMilbQ0gyXVtDSDJdTihbQ0gyXTMpW0NIMl1bQ0gyXVtDSDJdW0NIMl1OKFtDSDJdW09IXSlbQ0BIXShbQ0gzXSlbQ0BASF0oW0NIMl1bTkgyXSlbQ0BIXTRbQ0gyXVtDSF09W0NIXVtDSF09W0NIXTQ=

>  <s_glide_docking_method>  (1) 
confgen

>  <s_i_glide_gridfile>  (1) 
gpcr_drd2_6luq_protein_autoprepared_prepared

>  <s_lp_Force_Field>  (1) 
S-OPLS

>  <s_lp_Variant>  (1) 
DiffSBDD_76_num_sample_100-4

>  <s_m_source_file>  (1) 
generated__ligand_DiffSBDD_2026-05-06_prepared.sdf

>  <GenAI_Model>  (1) 
DiffSBDD

>  <Protein>  (1) 
generic_title2

$$$$
DiffSBDD_11_num_sample_100
     RDKit          3D

  0  0  0  0  0  0  0  0  0  0999 V3000
M  V30 BEGIN CTAB
M  V30 COUNTS 56 58 0 0 1
M  V30 BEGIN ATOM
M  V30 1 C 7.488196 3.728340 -14.008664 0 CFG=1
M  V30 2 C 10.519074 7.116119 -5.857207 0 CFG=1
M  V30 3 N 7.638659 1.277763 -14.511697 0
M  V30 4 C 10.027424 7.625321 -8.578649 0 CFG=1
M  V30 5 O 6.243109 -0.233518 -15.434587 0
M  V30 6 C 7.898917 4.017133 -15.470196 0
M  V30 7 S 11.261489 8.797184 -7.916050 0
M  V30 8 O 11.869120 6.759394 -2.286207 0
M  V30 9 O 10.850818 6.115716 -6.795203 0
M  V30 10 C 10.174035 7.558278 -10.072068 0
M  V30 11 C 7.646256 4.868275 -11.655806 0
M  V30 12 C 12.135289 8.982883 -5.359826 0
M  V30 13 C 10.736819 6.535851 -4.454658 0
M  V30 14 C 9.330899 6.694984 -11.021053 0
M  V30 15 C 9.470110 7.157331 -12.460951 0
M  V30 16 C 6.475296 0.599828 -14.566137 0
M  V30 17 C 11.340029 8.330156 -6.226463 0
M  V30 18 C 7.931657 2.318226 -13.521710 0
M  V30 19 C 8.482677 5.640047 -10.623735 0
M  V30 20 C 5.426829 0.900017 -13.492267 0
M  V30 21 Cl 11.834826 9.713618 -2.692752 0
M  V30 22 C 10.284438 6.230346 -8.094124 0 CFG=1
M  V30 23 C 8.042092 4.878127 -13.139608 0
M  V30 24 C 12.349153 8.556301 -3.922179 0 CFG=1
M  V30 25 C 11.881559 7.119397 -3.651824 0 CFG=1
M  V30 26 O 6.666293 4.197684 -11.323208 0
M  V30 27 C 9.031796 5.432636 -8.135014 0
M  V30 28 C 8.272920 5.171419 -9.220128 0
M  V30 29 H 6.399207 3.776665 -13.978050 0
M  V30 30 H 9.458768 7.366205 -5.939985 0
M  V30 31 H 8.343339 1.084739 -15.207691 0
M  V30 32 H 9.035964 7.979331 -8.285114 0
M  V30 33 H 8.980783 3.964948 -15.600920 0
M  V30 34 H 7.589318 5.019144 -15.773981 0
M  V30 35 H 7.441716 3.323180 -16.175060 0
M  V30 36 H 11.229854 7.291880 -1.838175 0
M  V30 37 H 9.980658 8.578692 -10.394637 0
M  V30 38 H 11.220464 7.379577 -10.328178 0
M  V30 39 H 12.714273 9.828728 -5.700649 0
M  V30 40 H 9.834775 6.569301 -3.891667 0
M  V30 41 H 10.916261 5.466724 -4.537654 0
M  V30 42 H 10.115516 6.517116 -13.057420 0
M  V30 43 H 9.977683 8.120415 -12.484543 0
M  V30 44 H 8.517291 7.396058 -12.923088 0
M  V30 45 H 9.005859 2.305521 -13.340858 0
M  V30 46 H 7.500517 2.076304 -12.553280 0
M  V30 47 H 5.129055 1.948075 -13.491312 0
M  V30 48 H 5.796349 0.626020 -12.502294 0
M  V30 49 H 4.529386 0.309750 -13.678093 0
M  V30 50 H 11.031432 5.754648 -8.711691 0
M  V30 51 H 9.123690 4.815495 -13.210193 0
M  V30 52 H 7.663906 5.786757 -13.598647 0
M  V30 53 H 13.432593 8.536173 -3.808523 0
M  V30 54 H 12.634873 6.528147 -4.092925 0
M  V30 55 H 8.729253 5.008405 -7.195684 0
M  V30 56 H 7.415843 4.535681 -9.048586 0
M  V30 END ATOM
M  V30 BEGIN BOND
M  V30 1 1 6 1
M  V30 2 1 7 4
M  V30 3 1 9 2
M  V30 4 1 10 4
M  V30 5 1 13 2
M  V30 6 1 14 10
M  V30 7 1 15 14
M  V30 8 1 16 3
M  V30 9 2 16 5
M  V30 10 1 17 2
M  V30 11 1 17 7
M  V30 12 2 17 12
M  V30 13 1 18 1
M  V30 14 1 18 3
M  V30 15 1 19 11
M  V30 16 2 19 14
M  V30 17 1 20 16
M  V30 18 1 22 4
M  V30 19 1 22 9
M  V30 20 1 23 1
M  V30 21 1 23 11
M  V30 22 1 24 12
M  V30 23 1 24 21
M  V30 24 1 25 8
M  V30 25 1 25 13
M  V30 26 1 25 24
M  V30 27 2 26 11
M  V30 28 1 27 22
M  V30 29 1 28 19
M  V30 30 2 28 27
M  V30 31 1 1 29 CFG=3
M  V30 32 1 2 30 CFG=1
M  V30 33 1 31 3
M  V30 34 1 4 32 CFG=3
M  V30 35 1 33 6
M  V30 36 1 34 6
M  V30 37 1 35 6
M  V30 38 1 36 8
M  V30 39 1 37 10
M  V30 40 1 38 10
M  V30 41 1 39 12
M  V30 42 1 40 13
M  V30 43 1 41 13
M  V30 44 1 42 15
M  V30 45 1 43 15
M  V30 46 1 44 15
M  V30 47 1 45 18
M  V30 48 1 46 18
M  V30 49 1 47 20
M  V30 50 1 48 20
M  V30 51 1 49 20
M  V30 52 1 22 50 CFG=3
M  V30 53 1 51 23
M  V30 54 1 52 23
M  V30 55 1 24 53 CFG=3
M  V30 56 1 25 54 CFG=3
M  V30 57 1 55 27
M  V30 58 1 56 28
M  V30 END BOND
M  V30 END CTAB
M  END
>  <i_epik_Tot_Q>  (1) 
0

>  <i_epik_Tot_abs_Q>  (1) 
0

>  <i_i_glide_confnum>  (1) 
244

>  <i_i_glide_lignum>  (1) 
18

>  <i_i_glide_posenum>  (1) 
198

>  <i_i_glide_rotatable_bonds>  (1) 
7

>  <i_lp_mmshare_version>  (1) 
72125

>  <i_m_source_file_index>  (1) 
12

>  <i_f3d_flags>  (1) 
0

>  <num_sample>  (1) 
100

>  <b_lp_Chiralities_Consistent>  (1) 
1

>  <r_epik_Charging_Adjusted_Penalty>  (1) 
0

>  <r_epik_Ionization_Penalty>  (1) 
0.000136015572717869

>  <r_epik_Ionization_Penalty_Charging>  (1) 
0

>  <r_epik_Ionization_Penalty_Neutral>  (1) 
0.000136015572717869

>  <r_epik_State_Penalty>  (1) 
-0

>  <r_glide_ring_energy>  (1) 
0

>  <r_i_docking_score>  (1) 
-3.3003892081370672

>  <r_i_glide_ecoul>  (1) 
0.54760552486920033

>  <r_i_glide_eff_state_penalty>  (1) 
-0

>  <r_i_glide_einternal>  (1) 
8.885679099836576

>  <r_i_glide_emodel>  (1) 
-30.756472399760057

>  <r_i_glide_emodel_strain>  (1) 
3.4552593767177768

>  <r_i_glide_energy>  (1) 
-31.647239232603713

>  <r_i_glide_erotb>  (1) 
0.5467392007768872

>  <r_i_glide_esite>  (1) 
-0.0019235540936421462

>  <r_i_glide_evdw>  (1) 
-32.194844757472914

>  <r_i_glide_gscore>  (1) 
-3.3003892081370672

>  <r_i_glide_gscore_strain>  (1) 
0

>  <r_i_glide_hbond>  (1) 
0

>  <r_i_glide_ligand_efficiency>  (1) 
-0.1178710431477524

>  <r_i_glide_ligand_efficiency_ln>  (1) 
-0.76182673287591218

>  <r_i_glide_ligand_efficiency_sa>  (1) 
-0.35792590972594535

>  <r_i_glide_lipo>  (1) 
-2.3363231233289126

>  <r_i_glide_metal>  (1) 
-0

>  <r_i_glide_rewards>  (1) 
0.018719677651866329

>  <r_lp_Energy>  (1) 
23.239920999999999

>  <r_lp_tautomer_probability>  (1) 
1

>  <s_epik_cmdline>  (1) 
J2VwaWtfcHl0aG9uJywgJy1waHQnLCAnMS4wJywgJy1waCcsICc3LjQnLCAnLXRuJywgJzgnLCAnLW1hJywgJzUwMCcsICctaW1hZScsICc8aW5maWxlLm1hZT4nLCAnLW9tYWUnLCAnPG91dGZpbGUubWFlPic=

>  <s_epik_input>  (1) 
Tz1DKFtDSDNdKVtOSF1bQ0gyXVtDQEhdKFtDSDNdKVtDSDJdQyg9TylDKD1DKFtDSDJdMSlbQ0gzXSlbQ0hdPVtDSF1bQ0BIXShPMilbQ0BIXTFTQyhbQ0BASF0yMyk9W0NIXVtDQEBIXShDbClbQ0BASF0oW09IXSlbQ0gyXTM=

>  <s_glide_docking_method>  (1) 
confgen

>  <s_i_glide_gridfile>  (1) 
gpcr_drd2_6luq_protein_autoprepared_prepared

>  <s_lp_Force_Field>  (1) 
S-OPLS

>  <s_lp_Variant>  (1) 
DiffSBDD_11_num_sample_100-1

>  <s_m_source_file>  (1) 
generated__ligand_DiffSBDD_2026-05-06_prepared.sdf

>  <GenAI_Model>  (1) 
DiffSBDD

>  <Protein>  (1) 
generic_title2

$$$$
DiffSBDD_66_num_sample_100
     RDKit          3D

  0  0  0  0  0  0  0  0  0  0999 V3000
M  V30 BEGIN CTAB
M  V30 COUNTS 88 91 0 0 1
M  V30 BEGIN ATOM
M  V30 1 C 7.319053 2.059739 -16.408606 0
M  V30 2 F 10.453094 5.582495 -12.250134 0
M  V30 3 C 8.650474 4.229017 -16.366795 0 CFG=1
M  V30 4 N 8.860010 2.794398 -19.026386 0
M  V30 5 C 10.073831 1.713729 -20.861411 0
M  V30 6 F 10.721440 4.923055 -17.391505 0
M  V30 7 O 9.834588 6.844810 -8.766869 0
M  V30 8 N 10.791538 4.039798 -20.948677 0
M  V30 9 O 9.434871 4.721244 -10.368797 0
M  V30 10 C 10.018191 2.881185 -18.244352 0
M  V30 11 O 12.132559 2.466502 -21.789308 0
M  V30 12 C 8.456250 5.768765 -16.264113 0
M  V30 13 C 12.775136 3.771949 -21.951219 0
M  V30 14 C 7.077405 6.439907 -16.049807 0
M  V30 15 O 9.772334 -0.060286 -22.486051 0
M  V30 16 C 8.776088 2.043717 -20.213052 0
M  V30 17 O 11.040643 2.224677 -18.453833 0
M  V30 18 C 10.338979 0.263512 -21.232161 0
M  V30 19 C 6.435746 7.032139 -17.297028 0
M  V30 20 C 10.204676 7.691356 -9.579422 0
M  V30 21 C 11.844015 4.894119 -21.355378 0
M  V30 22 O 5.985542 6.399356 -20.331053 0
M  V30 23 C 7.831761 7.153383 -12.737198 0
M  V30 24 C 11.498919 9.092959 -6.951164 0
M  V30 25 C 9.283694 5.374731 -11.602201 0 CFG=1
M  V30 26 O 7.687434 1.718378 -20.689130 0
M  V30 27 C 7.503378 3.471100 -17.006378 0 CFG=1
M  V30 28 N 11.275145 8.480282 -9.373229 0
M  V30 29 C 6.075022 5.337990 -12.668735 0 CFG=2
M  V30 30 C 7.395247 4.797571 -19.295773 0
M  V30 31 C 5.437308 6.115910 -18.000633 0 CFG=1
M  V30 32 O 6.326857 3.929542 -12.520555 0
M  V30 33 C 4.113339 6.854289 -18.238254 0
M  V30 34 C 6.501613 6.566328 -14.830818 0
M  V30 35 C 8.550029 6.716159 -11.431409 0 CFG=1
M  V30 36 C 7.607409 3.449633 -18.545445 0 CFG=1
M  V30 37 C 10.000928 3.854333 -17.043957 0 CFG=2
M  V30 38 C 10.951104 2.719253 -21.169887 0
M  V30 39 C 12.106371 8.382761 -8.171916 0
M  V30 40 C 5.123284 4.303540 -13.186290 0
M  V30 41 C 7.099272 6.044522 -13.534141 0 CFG=1
M  V30 42 C 5.974491 5.433274 -19.295865 0 CFG=1
M  V30 43 C 9.443138 7.889764 -10.906112 0
M  V30 44 H 8.183293 1.415784 -16.574896 0
M  V30 45 H 7.151698 2.111463 -15.331218 0
M  V30 46 H 6.450314 1.560286 -16.842692 0
M  V30 47 H 8.704463 3.882919 -15.335918 0
M  V30 48 H 9.974251 4.419394 -20.492522 0
M  V30 49 H 9.450022 5.389782 -9.688844 0
M  V30 50 H 9.125268 6.133661 -15.492667 0
M  V30 51 H 8.856025 6.169290 -17.185138 0
M  V30 52 H 13.741345 3.761944 -21.444847 0
M  V30 53 H 12.958160 3.952748 -23.011561 0
M  V30 54 H 10.001016 -0.950935 -22.703601 0
M  V30 55 H 9.933886 -0.393622 -20.459351 0
M  V30 56 H 11.412760 0.081753 -21.270617 0
M  V30 57 H 5.928495 7.945305 -16.978785 0
M  V30 58 H 7.192256 7.368413 -18.001062 0
M  V30 59 H 12.293956 5.404112 -20.503507 0
M  V30 60 H 11.510056 5.615555 -22.101293 0
M  V30 61 H 6.572080 7.096367 -20.083652 0
M  V30 62 H 8.559071 7.619534 -13.390447 0
M  V30 63 H 7.121716 7.943751 -12.486785 0
M  V30 64 H 12.115928 8.930524 -6.068152 0
M  V30 65 H 11.442094 10.169518 -7.090437 0
M  V30 66 H 10.497780 8.724515 -6.724903 0
M  V30 67 H 8.727707 4.629064 -12.156161 0
M  V30 68 H 6.634838 4.010537 -16.712893 0
M  V30 69 H 11.534054 9.158356 -10.075033 0
M  V30 70 H 5.770762 5.849577 -11.757257 0
M  V30 71 H 7.604636 4.585492 -20.345898 0
M  V30 72 H 8.159904 5.524291 -19.041040 0
M  V30 73 H 5.151257 5.369198 -17.280267 0
M  V30 74 H 4.223265 7.718251 -18.894094 0
M  V30 75 H 3.411010 6.169289 -18.691536 0
M  V30 76 H 3.673658 7.201832 -17.303539 0
M  V30 77 H 5.553556 7.077173 -14.746222 0
M  V30 78 H 7.779979 6.525077 -10.692042 0
M  V30 79 H 6.752858 2.838982 -18.836793 0
M  V30 80 H 10.630252 3.391423 -16.291787 0
M  V30 81 H 12.278231 7.336297 -7.924051 0
M  V30 82 H 13.086226 8.807406 -8.392080 0
M  V30 83 H 4.234091 4.077888 -12.619196 0
M  V30 84 H 5.080288 4.169273 -14.261000 0
M  V30 85 H 7.813774 5.293179 -13.848325 0
M  V30 86 H 5.259891 4.668829 -19.604892 0
M  V30 87 H 10.171108 8.143934 -11.676402 0
M  V30 88 H 8.816630 8.772912 -10.776513 0
M  V30 END ATOM
M  V30 BEGIN BOND
M  V30 1 1 10 4
M  V30 2 1 12 3
M  V30 3 1 13 11
M  V30 4 1 14 12
M  V30 5 1 16 4
M  V30 6 1 16 5
M  V30 7 2 17 10
M  V30 8 1 18 5
M  V30 9 1 18 15
M  V30 10 1 19 14
M  V30 11 2 20 7
M  V30 12 1 21 8
M  V30 13 1 21 13
M  V30 14 1 25 2
M  V30 15 1 25 9
M  V30 16 2 26 16
M  V30 17 1 27 1
M  V30 18 1 27 3
M  V30 19 1 28 20
M  V30 20 1 31 19
M  V30 21 1 32 29
M  V30 22 1 33 31
M  V30 23 2 34 14
M  V30 24 1 35 23
M  V30 25 1 35 25
M  V30 26 1 36 4
M  V30 27 1 36 27
M  V30 28 1 36 30
M  V30 29 1 37 3
M  V30 30 1 37 6
M  V30 31 1 37 10
M  V30 32 2 38 5
M  V30 33 1 38 8
M  V30 34 1 38 11
M  V30 35 1 39 24
M  V30 36 1 39 28
M  V30 37 1 40 29
M  V30 38 1 40 32
M  V30 39 1 41 23
M  V30 40 1 41 29
M  V30 41 1 41 34
M  V30 42 1 42 22
M  V30 43 1 42 30
M  V30 44 1 42 31
M  V30 45 1 43 20
M  V30 46 1 43 35
M  V30 47 1 44 1
M  V30 48 1 45 1
M  V30 49 1 46 1
M  V30 50 1 3 47 CFG=1
M  V30 51 1 48 8
M  V30 52 1 49 9
M  V30 53 1 50 12
M  V30 54 1 51 12
M  V30 55 1 52 13
M  V30 56 1 53 13
M  V30 57 1 54 15
M  V30 58 1 55 18
M  V30 59 1 56 18
M  V30 60 1 57 19
M  V30 61 1 58 19
M  V30 62 1 59 21
M  V30 63 1 60 21
M  V30 64 1 61 22
M  V30 65 1 62 23
M  V30 66 1 63 23
M  V30 67 1 64 24
M  V30 68 1 65 24
M  V30 69 1 66 24
M  V30 70 1 25 67 CFG=3
M  V30 71 1 27 68 CFG=3
M  V30 72 1 69 28
M  V30 73 1 29 70 CFG=1
M  V30 74 1 71 30
M  V30 75 1 72 30
M  V30 76 1 31 73 CFG=1
M  V30 77 1 74 33
M  V30 78 1 75 33
M  V30 79 1 76 33
M  V30 80 1 77 34
M  V30 81 1 35 78 CFG=1
M  V30 82 1 36 79 CFG=3
M  V30 83 1 37 80 CFG=1
M  V30 84 1 81 39
M  V30 85 1 82 39
M  V30 86 1 83 40
M  V30 87 1 84 40
M  V30 88 1 41 85 CFG=3
M  V30 89 1 42 86 CFG=3
M  V30 90 1 87 43
M  V30 91 1 88 43
M  V30 END BOND
M  V30 END CTAB
M  END
>  <i_epik_Tot_Q>  (1) 
0

>  <i_epik_Tot_abs_Q>  (1) 
0

>  <i_i_glide_confnum>  (1) 
1070

>  <i_i_glide_lignum>  (1) 
132

>  <i_i_glide_posenum>  (1) 
61

>  <i_i_glide_rotatable_bonds>  (1) 
15

>  <i_lp_mmshare_version>  (1) 
72125

>  <i_m_source_file_index>  (1) 
67

>  <i_f3d_flags>  (1) 
0

>  <num_sample>  (1) 
100

>  <b_lp_Chiralities_Consistent>  (1) 
1

>  <r_epik_Charging_Adjusted_Penalty>  (1) 
0.011224841026204068

>  <r_epik_Ionization_Penalty>  (1) 
0.011270599783865109

>  <r_epik_Ionization_Penalty_Charging>  (1) 
8.5422756824624084e-11

>  <r_epik_Ionization_Penalty_Neutral>  (1) 
0.011270599698442352

>  <r_epik_State_Penalty>  (1) 
0.01122484094078131

>  <r_glide_ring_energy>  (1) 
0

>  <r_i_docking_score>  (1) 
-3.298906048581542

>  <r_i_glide_ecoul>  (1) 
2.0868618855270569

>  <r_i_glide_eff_state_penalty>  (1) 
0.01122484094078131

>  <r_i_glide_einternal>  (1) 
15.279380193080197

>  <r_i_glide_emodel>  (1) 
-17.167793538389581

>  <r_i_glide_emodel_strain>  (1) 
3.051773036406189

>  <r_i_glide_energy>  (1) 
-22.297498169611245

>  <r_i_glide_erotb>  (1) 
0.43215163049877869

>  <r_i_glide_esite>  (1) 
-0.068886393504845114

>  <r_i_glide_evdw>  (1) 
-24.384360055138302

>  <r_i_glide_gscore>  (1) 
-3.3101308895223234

>  <r_i_glide_gscore_strain>  (1) 
0

>  <r_i_glide_hbond>  (1) 
0

>  <r_i_glide_ligand_efficiency>  (1) 
-0.076718745315849809

>  <r_i_glide_ligand_efficiency_ln>  (1) 
-0.69287279854251449

>  <r_i_glide_ligand_efficiency_sa>  (1) 
-0.26877630353485138

>  <r_i_glide_lipo>  (1) 
-2.2721695160140007

>  <r_i_glide_metal>  (1) 
-0

>  <r_i_glide_rewards>  (1) 
-0.49503789057439934

>  <r_lp_Energy>  (1) 
44.110861999999997

>  <r_lp_tautomer_probability>  (1) 
0.49997499999946832

>  <s_epik_Chemistry_Notes>  (1) 
This compound has an imine and may undergo hydrolysis.

>  <s_epik_cmdline>  (1) 
J2VwaWtfcHl0aG9uJywgJy1waHQnLCAnMS4wJywgJy1waCcsICc3LjQnLCAnLXRuJywgJzgnLCAnLW1hJywgJzUwMCcsICctaW1hZScsICc8aW5maWxlLm1hZT4nLCAnLW9tYWUnLCAnPG91dGZpbGUubWFlPic=

>  <s_epik_input>  (1) 
TzFbQ0gyXVtDSDJdTj1DMVtDQEhdKFtDSDJdW09IXSlDKD1PKU4oQyg9TylbQ0BIXTJGKVtDQEBIXShbQ0BASF0zW0NIM10pW0NIMl1bQ0BIXShbT0hdKVtDQEhdKFtDSDNdKVtDSDJdQyhcW0NIMl1bQ0BIXTIzKT1bQ0hdXFtDQEhdKFtDQEBIXTRPW0NIMl00KVtDSDJdW0NAQEhdKFtDQEBIXShGKVtPSF0pW0NIMl1DKD1PKVtOSF1bQ0gyXVtDSDNd

>  <s_glide_docking_method>  (1) 
confgen

>  <s_i_glide_gridfile>  (1) 
gpcr_drd2_6luq_protein_autoprepared_prepared

>  <s_lp_Force_Field>  (1) 
S-OPLS

>  <s_lp_Variant>  (1) 
DiffSBDD_66_num_sample_100-4

>  <s_m_source_file>  (1) 
generated__ligand_DiffSBDD_2026-05-06_prepared.sdf

>  <GenAI_Model>  (1) 
DiffSBDD

>  <Protein>  (1) 
generic_title2

$$$$
DiffSBDD_33_num_sample_100
     RDKit          3D

  0  0  0  0  0  0  0  0  0  0999 V3000
M  V30 BEGIN CTAB
M  V30 COUNTS 82 83 0 0 1
M  V30 BEGIN ATOM
M  V30 1 C 7.274667 7.132843 -13.496554 0
M  V30 2 C 11.866254 8.279433 -8.482489 0
M  V30 3 C 10.102351 6.845776 -10.155798 0
M  V30 4 C 5.645683 8.254067 -22.396603 0
M  V30 5 C 8.262113 4.972545 -14.510676 0
M  V30 6 C 9.136723 6.059902 -11.053953 0
M  V30 7 C 9.834911 6.953430 -8.783760 0
M  V30 8 C 8.229999 6.148327 -13.514662 0
M  V30 9 C 6.156406 7.291400 -14.448847 0
M  V30 10 C 5.921340 6.572044 -15.508546 0
M  V30 11 C 9.018303 5.299710 -15.827449 0
M  V30 12 C 5.361613 6.130657 -17.881577 0
M  V30 13 C 9.364655 7.438955 -21.367185 0
M  V30 14 C 9.207767 4.162530 -16.872808 0
M  V30 15 C 5.218817 9.462425 -21.552373 0
M  V30 16 C 10.707347 6.421761 -5.742869 0 CFG=2
M  V30 17 C 9.404244 6.198641 -12.554685 0
M  V30 18 C 10.658860 8.243990 -21.209155 0
M  V30 19 C 5.915847 5.769303 -16.531532 0
M  V30 20 C 12.141544 8.169285 -9.853573 0
M  V30 21 C 6.849773 7.481401 -21.824688 0 CFG=1
M  V30 22 C 8.091694 3.874710 -17.918653 0
M  V30 23 C 11.034825 6.512337 -4.243732 0
M  V30 24 O 11.834829 5.805976 -6.312058 0
M  V30 25 C 11.268229 7.453466 -10.691582 0
M  V30 26 N 9.034833 8.169318 -6.300651 0 CHG=1
M  V30 27 C 8.155637 8.298121 -21.781545 0
M  V30 28 C 10.716081 7.668748 -7.943621 0
M  V30 29 C 10.434708 7.764361 -6.457759 0 CFG=2
M  V30 30 C 7.619624 5.084109 -18.782747 0
M  V30 31 O 11.721586 7.376438 -20.879519 0
M  V30 32 O 6.574792 7.061822 -20.495299 0
M  V30 33 C 6.074841 5.281267 -18.978437 0 CFG=2
M  V30 34 C 5.804022 5.873756 -20.371514 0
M  V30 35 H 7.383655 7.902688 -12.745243 0
M  V30 36 H 12.543175 8.824082 -7.840351 0
M  V30 37 H 4.797433 7.576461 -22.497656 0
M  V30 38 H 5.881624 8.586858 -23.408168 0
M  V30 39 H 8.807727 4.167919 -14.017250 0
M  V30 40 H 7.282795 4.522538 -14.633690 0
M  V30 41 H 9.159722 5.006633 -10.773426 0
M  V30 42 H 8.129997 6.411583 -10.831892 0
M  V30 43 H 8.952194 6.482739 -8.372511 0
M  V30 44 H 5.556895 8.169292 -14.315855 0
M  V30 45 H 8.577785 6.169300 -16.300057 0
M  V30 46 H 10.017671 5.625666 -15.536068 0
M  V30 47 H 5.527715 7.195170 -18.056322 0
M  V30 48 H 4.284144 5.977836 -17.899910 0
M  V30 49 H 9.509098 6.644183 -22.099753 0
M  V30 50 H 9.153954 6.947578 -20.418116 0
M  V30 51 H 10.108806 4.402144 -17.438822 0
M  V30 52 H 9.436413 3.235923 -16.347604 0
M  V30 53 H 4.349304 9.952901 -21.990554 0
M  V30 54 H 6.020110 10.196196 -21.493225 0
M  V30 55 H 4.957851 9.166319 -20.535750 0
M  V30 56 H 9.856071 5.769310 -5.909320 0
M  V30 57 H 10.238664 5.579262 -12.883605 0
M  V30 58 H 9.711267 7.231317 -12.691872 0
M  V30 59 H 10.901154 8.788054 -22.123046 0
M  V30 60 H 10.554123 8.969266 -20.404246 0
M  V30 61 H 6.410942 4.835728 -16.471691 0
M  V30 62 H 13.028124 8.631211 -10.265392 0
M  V30 63 H 7.036320 6.614706 -22.461419 0
M  V30 64 H 8.491215 3.129247 -18.607921 0
M  V30 65 H 7.262954 3.334955 -17.463445 0
M  V30 66 H 10.157518 6.273516 -3.647743 0
M  V30 67 H 11.434918 7.484676 -3.956174 0
M  V30 68 H 11.774404 5.769241 -3.943828 0
M  V30 69 H 11.656588 5.624263 -7.224467 0
M  V30 70 H 11.498923 7.369076 -11.740444 0
M  V30 71 H 8.902311 9.091198 -6.687899 0
M  V30 72 H 8.767935 8.150441 -5.327548 0
M  V30 73 H 8.347006 8.737921 -22.760970 0
M  V30 74 H 8.048110 9.134212 -21.091728 0
M  V30 75 H 11.066965 8.543265 -6.030222 0
M  V30 76 H 8.055293 6.017982 -18.428983 0
M  V30 77 H 8.074444 4.940655 -19.763467 0
M  V30 78 H 11.857997 6.774773 -21.595493 0
M  V30 79 H 5.616127 4.291739 -18.966965 0
M  V30 80 H 4.744687 6.088342 -20.517843 0
M  V30 81 H 6.092792 5.140246 -21.125501 0
M  V30 82 H 8.429177 7.533036 -6.808470 0
M  V30 END ATOM
M  V30 BEGIN BOND
M  V30 1 1 6 3
M  V30 2 2 7 3
M  V30 3 2 8 1
M  V30 4 1 8 5
M  V30 5 1 9 1
M  V30 6 2 10 9
M  V30 7 1 11 5
M  V30 8 1 14 11
M  V30 9 1 15 4
M  V30 10 1 17 6
M  V30 11 1 17 8
M  V30 12 1 18 13
M  V30 13 2 19 10
M  V30 14 1 19 12
M  V30 15 1 20 2
M  V30 16 1 21 4
M  V30 17 1 22 14
M  V30 18 1 23 16
M  V30 19 1 24 16
M  V30 20 1 25 3
M  V30 21 2 25 20
M  V30 22 1 27 13
M  V30 23 1 27 21
M  V30 24 2 28 2
M  V30 25 1 28 7
M  V30 26 1 29 16
M  V30 27 1 29 26
M  V30 28 1 29 28
M  V30 29 1 30 22
M  V30 30 1 31 18
M  V30 31 1 32 21
M  V30 32 1 33 12
M  V30 33 1 33 30
M  V30 34 1 34 32
M  V30 35 1 34 33
M  V30 36 1 35 1
M  V30 37 1 36 2
M  V30 38 1 37 4
M  V30 39 1 38 4
M  V30 40 1 39 5
M  V30 41 1 40 5
M  V30 42 1 41 6
M  V30 43 1 42 6
M  V30 44 1 43 7
M  V30 45 1 44 9
M  V30 46 1 45 11
M  V30 47 1 46 11
M  V30 48 1 47 12
M  V30 49 1 48 12
M  V30 50 1 49 13
M  V30 51 1 50 13
M  V30 52 1 51 14
M  V30 53 1 52 14
M  V30 54 1 53 15
M  V30 55 1 54 15
M  V30 56 1 55 15
M  V30 57 1 16 56 CFG=1
M  V30 58 1 57 17
M  V30 59 1 58 17
M  V30 60 1 59 18
M  V30 61 1 60 18
M  V30 62 1 61 19
M  V30 63 1 62 20
M  V30 64 1 21 63 CFG=3
M  V30 65 1 64 22
M  V30 66 1 65 22
M  V30 67 1 66 23
M  V30 68 1 67 23
M  V30 69 1 68 23
M  V30 70 1 69 24
M  V30 71 1 70 25
M  V30 72 1 71 26
M  V30 73 1 72 26
M  V30 74 1 73 27
M  V30 75 1 74 27
M  V30 76 1 29 75 CFG=1
M  V30 77 1 76 30
M  V30 78 1 77 30
M  V30 79 1 78 31
M  V30 80 1 33 79 CFG=3
M  V30 81 1 80 34
M  V30 82 1 81 34
M  V30 83 1 82 26
M  V30 END BOND
M  V30 END CTAB
M  END
>  <i_epik_Tot_Q>  (1) 
1

>  <i_epik_Tot_abs_Q>  (1) 
1

>  <i_i_glide_confnum>  (1) 
180

>  <i_i_glide_lignum>  (1) 
58

>  <i_i_glide_posenum>  (1) 
16

>  <i_i_glide_rotatable_bonds>  (1) 
14

>  <i_lp_mmshare_version>  (1) 
72125

>  <i_m_source_file_index>  (1) 
34

>  <i_f3d_flags>  (1) 
0

>  <num_sample>  (1) 
100

>  <b_lp_Chiralities_Consistent>  (1) 
1

>  <r_epik_Charging_Adjusted_Penalty>  (1) 
0.1638001962036823

>  <r_epik_Ionization_Penalty>  (1) 
0.081900497226930546

>  <r_epik_Ionization_Penalty_Charging>  (1) 
0.081900098101841165

>  <r_epik_Ionization_Penalty_Neutral>  (1) 
3.991250893861813e-07

>  <r_epik_State_Penalty>  (1) 
0.081900098101841151

>  <r_glide_ring_energy>  (1) 
0

>  <r_i_docking_score>  (1) 
-3.2950542989458742

>  <r_i_glide_ecoul>  (1) 
-2.2246770200794019

>  <r_i_glide_eff_state_penalty>  (1) 
0.081900098101841151

>  <r_i_glide_einternal>  (1) 
4.7719168088311923

>  <r_i_glide_emodel>  (1) 
-20.458042113775157

>  <r_i_glide_emodel_strain>  (1) 
10.3656581943536

>  <r_i_glide_energy>  (1) 
-31.124772879718115

>  <r_i_glide_erotb>  (1) 
1.0031588910435418

>  <r_i_glide_esite>  (1) 
-0.067324940262402364

>  <r_i_glide_evdw>  (1) 
-28.900095859638714

>  <r_i_glide_gscore>  (1) 
-3.3769543970477152

>  <r_i_glide_gscore_strain>  (1) 
1.5914145485883999

>  <r_i_glide_hbond>  (1) 
-0.063618759588513138

>  <r_i_glide_ligand_efficiency>  (1) 
-0.096913361733702186

>  <r_i_glide_ligand_efficiency_ln>  (1) 
-0.72796991777964859

>  <r_i_glide_ligand_efficiency_sa>  (1) 
-0.31396167037397532

>  <r_i_glide_lipo>  (1) 
-2.9622547908348933

>  <r_i_glide_metal>  (1) 
-0

>  <r_i_glide_rewards>  (1) 
-1.0996230000000018

>  <r_lp_Energy>  (1) 
13.020887999999999

>  <s_epik_cmdline>  (1) 
J2VwaWtfcHl0aG9uJywgJy1waHQnLCAnMS4wJywgJy1waCcsICc3LjQnLCAnLXRuJywgJzgnLCAnLW1hJywgJzUwMCcsICctaW1hZScsICc8aW5maWxlLm1hZT4nLCAnLW9tYWUnLCAnPG91dGZpbGUubWFlPic=

>  <s_epik_input>  (1) 
W0NIM11bQ0BIXShbT0hdKVtDQEhdKFtOSDJdKWMoW2NIXVtjSF1bY0hdMSlbY0hdYzFbQ0gyXVtDSDJdQ1wyPVtDSF1cW0NIXT1DPVtDSF1bQ0gyXVtDQEhdKFtDSDJdW0NIMl1bQ0gyXVtDSDJdW0NIMl0yKVtDSDJdT1tDQEBIXShbQ0gyXVtDSDNdKVtDSDJdW0NIMl1bQ0gyXVtPSF0=

>  <s_glide_docking_method>  (1) 
confgen

>  <s_i_glide_gridfile>  (1) 
gpcr_drd2_6luq_protein_autoprepared_prepared

>  <s_lp_Force_Field>  (1) 
S-OPLS

>  <s_lp_Variant>  (1) 
DiffSBDD_33_num_sample_100-1

>  <s_m_source_file>  (1) 
generated__ligand_DiffSBDD_2026-05-06_prepared.sdf

>  <GenAI_Model>  (1) 
DiffSBDD

>  <Protein>  (1) 
generic_title2

$$$$
DiffSBDD_55_num_sample_100
     RDKit          3D

  0  0  0  0  0  0  0  0  0  0999 V3000
M  V30 BEGIN CTAB
M  V30 COUNTS 50 53 0 0 1
M  V30 BEGIN ATOM
M  V30 1 O 9.587800 6.188671 -10.535292 0
M  V30 2 C 5.386713 6.060028 -20.797750 0
M  V30 3 C 6.181859 4.992622 -13.238029 0
M  V30 4 C 6.845027 7.594816 -14.714366 0
M  V30 5 C 8.938478 4.416659 -12.797427 0 CFG=2
M  V30 6 C 8.031241 4.569172 -11.592831 0 CFG=1
M  V30 7 S 6.978427 4.780291 -19.030953 0
M  V30 8 C 5.717510 4.640751 -20.324589 0
M  V30 9 C 5.651814 6.976075 -19.611164 0
M  V30 10 C 9.329636 5.800742 -8.214727 0
M  V30 11 N 7.059697 5.121299 -14.406046 0
M  V30 12 C 8.893175 4.958107 -10.358700 0 CFG=2
M  V30 13 C 6.820347 5.474159 -11.924751 0 CFG=2
M  V30 14 C 8.235110 5.101594 -8.987256 0
M  V30 15 C 9.899539 6.755926 -9.263444 0
M  V30 16 C 5.237704 6.085772 -17.345772 0
M  V30 17 C 6.812803 6.206613 -15.358728 0 CFG=1
M  V30 18 C 6.308113 6.334714 -18.392258 0 CFG=1
M  V30 19 C 9.438053 5.644693 -13.491715 0
M  V30 20 O 5.349358 8.167201 -19.634598 0
M  V30 21 O 5.814917 5.370770 -10.943985 0
M  V30 22 C 5.459923 6.030572 -16.019424 0
M  V30 23 C 8.456416 4.735698 -14.200105 0 CFG=1
M  V30 24 H 6.044997 6.356617 -21.614576 0
M  V30 25 H 4.355022 6.145563 -21.139434 0
M  V30 26 H 5.908170 3.942417 -13.125245 0
M  V30 27 H 5.242649 5.520192 -13.391786 0
M  V30 28 H 6.646623 8.364794 -15.461378 0
M  V30 29 H 6.084532 7.696021 -13.940641 0
M  V30 30 H 7.808343 7.825051 -14.270350 0
M  V30 31 H 9.661700 3.608567 -12.701979 0
M  V30 32 H 7.621696 3.574521 -11.473194 0
M  V30 33 H 6.075069 4.012509 -21.140542 0
M  V30 34 H 4.829706 4.166148 -19.904311 0
M  V30 35 H 10.090537 5.082897 -7.907277 0
M  V30 36 H 8.959789 6.316314 -7.327373 0
M  V30 37 H 9.662361 4.189927 -10.255831 0
M  V30 38 H 7.116969 6.520801 -11.996881 0
M  V30 39 H 7.377732 5.765189 -9.028604 0
M  V30 40 H 7.913026 4.169299 -8.529163 0
M  V30 41 H 10.975494 6.888361 -9.147019 0
M  V30 42 H 9.434577 7.738808 -9.195534 0
M  V30 43 H 4.234563 5.945033 -17.713101 0
M  V30 44 H 7.585837 6.162993 -16.124651 0
M  V30 45 H 7.106742 6.969053 -18.011486 0
M  V30 46 H 10.463487 5.644175 -13.850129 0
M  V30 47 H 9.107125 6.594511 -13.086971 0
M  V30 48 H 6.049587 5.958448 -10.234864 0
M  V30 49 H 4.634815 5.848500 -15.361375 0
M  V30 50 H 8.842664 4.162321 -15.040085 0
M  V30 END ATOM
M  V30 BEGIN BOND
M  V30 1 1 6 5
M  V30 2 1 8 2
M  V30 3 1 8 7
M  V30 4 1 9 2
M  V30 5 1 11 3
M  V30 6 1 12 1
M  V30 7 1 12 6
M  V30 8 1 13 3
M  V30 9 1 13 6
M  V30 10 1 14 10
M  V30 11 1 14 12
M  V30 12 1 15 1
M  V30 13 1 15 10
M  V30 14 1 17 4
M  V30 15 1 17 11
M  V30 16 1 18 7
M  V30 17 1 18 9
M  V30 18 1 18 16
M  V30 19 1 19 5
M  V30 20 2 20 9
M  V30 21 1 21 13
M  V30 22 2 22 16
M  V30 23 1 22 17
M  V30 24 1 23 5
M  V30 25 1 23 11
M  V30 26 1 23 19
M  V30 27 1 24 2
M  V30 28 1 25 2
M  V30 29 1 26 3
M  V30 30 1 27 3
M  V30 31 1 28 4
M  V30 32 1 29 4
M  V30 33 1 30 4
M  V30 34 1 5 31 CFG=3
M  V30 35 1 6 32 CFG=1
M  V30 36 1 33 8
M  V30 37 1 34 8
M  V30 38 1 35 10
M  V30 39 1 36 10
M  V30 40 1 12 37 CFG=1
M  V30 41 1 13 38 CFG=3
M  V30 42 1 39 14
M  V30 43 1 40 14
M  V30 44 1 41 15
M  V30 45 1 42 15
M  V30 46 1 43 16
M  V30 47 1 17 44 CFG=3
M  V30 48 1 18 45 CFG=1
M  V30 49 1 46 19
M  V30 50 1 47 19
M  V30 51 1 48 21
M  V30 52 1 49 22
M  V30 53 1 23 50 CFG=3
M  V30 END BOND
M  V30 END CTAB
M  END
>  <i_epik_Tot_Q>  (1) 
0

>  <i_epik_Tot_abs_Q>  (1) 
0

>  <i_i_glide_confnum>  (1) 
63

>  <i_i_glide_lignum>  (1) 
109

>  <i_i_glide_posenum>  (1) 
328

>  <i_i_glide_rotatable_bonds>  (1) 
5

>  <i_lp_mmshare_version>  (1) 
72125

>  <i_m_source_file_index>  (1) 
56

>  <i_f3d_flags>  (1) 
0

>  <num_sample>  (1) 
100

>  <b_lp_Chiralities_Consistent>  (1) 
1

>  <r_epik_Charging_Adjusted_Penalty>  (1) 
1.1351003249830234

>  <r_epik_Ionization_Penalty>  (1) 
1.13510036387319

>  <r_epik_Ionization_Penalty_Charging>  (1) 
0

>  <r_epik_Ionization_Penalty_Neutral>  (1) 
1.13510036387319

>  <r_epik_State_Penalty>  (1) 
1.1351003249830234

>  <r_glide_ring_energy>  (1) 
0.84612545809472284

>  <r_i_docking_score>  (1) 
-3.293583645435298

>  <r_i_glide_ecoul>  (1) 
-1.2358044226675551

>  <r_i_glide_eff_state_penalty>  (1) 
1.1351003249830234

>  <r_i_glide_einternal>  (1) 
15.672108171939271

>  <r_i_glide_emodel>  (1) 
-27.954223787062823

>  <r_i_glide_emodel_strain>  (1) 
0.44074603283658575

>  <r_i_glide_energy>  (1) 
-28.868428282032873

>  <r_i_glide_erotb>  (1) 
0.4978175189556282

>  <r_i_glide_esite>  (1) 
0

>  <r_i_glide_evdw>  (1) 
-27.632623859365317

>  <r_i_glide_gscore>  (1) 
-4.4286839704183212

>  <r_i_glide_gscore_strain>  (1) 
0

>  <r_i_glide_hbond>  (1) 
0

>  <r_i_glide_ligand_efficiency>  (1) 
-0.14319928893196948

>  <r_i_glide_ligand_efficiency_ln>  (1) 
-0.79641839003160253

>  <r_i_glide_ligand_efficiency_sa>  (1) 
-0.40723972933185176

>  <r_i_glide_lipo>  (1) 
-1.4883441169347886

>  <r_i_glide_metal>  (1) 
-0

>  <r_i_glide_rewards>  (1) 
-1.8711555160707611

>  <r_lp_Energy>  (1) 
16.200793000000001

>  <r_lp_tautomer_probability>  (1) 
0.99995000000000001

>  <s_epik_cmdline>  (1) 
J2VwaWtfcHl0aG9uJywgJy1waHQnLCAnMS4wJywgJy1waCcsICc3LjQnLCAnLXRuJywgJzgnLCAnLW1hJywgJzUwMCcsICctaW1hZScsICc8aW5maWxlLm1hZT4nLCAnLW9tYWUnLCAnPG91dGZpbGUubWFlPic=

>  <s_epik_input>  (1) 
W0NIMl0xW0NIMl1bQ0gyXU9bQ0BASF0xW0NASF0yW0NASF0oW09IXSlbQ0gyXU4oW0NASF0oW0NASF0yMylbQ0gyXTMpW0NASF0oW0NIM10pL1tDSF09W0NIXVxbQ0BIXTRTW0NIMl1bQ0gyXUM0PU8=

>  <s_glide_docking_method>  (1) 
confgen

>  <s_i_glide_gridfile>  (1) 
gpcr_drd2_6luq_protein_autoprepared_prepared

>  <s_lp_Force_Field>  (1) 
S-OPLS

>  <s_lp_Variant>  (1) 
DiffSBDD_55_num_sample_100-10

>  <s_m_source_file>  (1) 
generated__ligand_DiffSBDD_2026-05-06_prepared.sdf

>  <GenAI_Model>  (1) 
DiffSBDD

>  <Protein>  (1) 
generic_title2

$$$$
DiffSBDD_34_num_sample_100
     RDKit          3D

  0  0  0  0  0  0  0  0  0  0999 V3000
M  V30 BEGIN CTAB
M  V30 COUNTS 60 63 0 0 1
M  V30 BEGIN ATOM
M  V30 1 N 7.612382 3.867737 -16.466618 0
M  V30 2 C 6.059336 3.823117 -13.012648 0 CFG=1
M  V30 3 C 10.139657 7.850651 -9.103334 0
M  V30 4 C 11.263484 7.112268 -8.726185 0
M  V30 5 C 7.069114 1.428534 -13.831670 0
M  V30 6 C 12.134995 8.212390 -1.957531 0
M  V30 7 C 6.773830 2.462258 -12.691678 0
M  V30 8 C 7.384284 2.235476 -15.049312 0
M  V30 9 C 11.434841 7.804612 -4.962102 0
M  V30 10 N 11.434836 9.003493 -4.292385 0
M  V30 11 C 9.728286 6.569395 -11.358893 0
M  V30 12 C 9.841273 8.556012 -6.793352 0
M  V30 13 C 9.434833 8.569305 -8.134386 0
M  V30 14 C 10.972730 7.823954 -6.407906 0
M  V30 15 O 11.218373 10.156004 -5.091188 0
M  V30 16 C 6.168403 4.819149 -11.833097 0
M  V30 17 C 12.026738 9.345201 -2.992337 0
M  V30 18 C 5.879509 0.469582 -14.053958 0
M  V30 19 C 11.672017 7.083158 -7.376832 0
M  V30 20 C 8.064155 2.745394 -16.986092 0
M  V30 21 C 7.354093 5.802681 -12.021111 0 CFG=2
M  V30 22 O 8.234803 5.493961 -9.758297 0
M  V30 23 C 7.158033 3.580367 -15.213740 0
M  V30 24 O 11.832019 6.756818 -4.455224 0
M  V30 25 S 7.785816 5.778965 -13.789135 0
M  V30 26 C 9.677931 7.882230 -10.562623 0
M  V30 27 C 8.282386 0.590357 -13.397802 0
M  V30 28 C 8.601380 5.533217 -11.126830 0 CFG=2
M  V30 29 N 7.973994 1.663792 -16.214850 0
M  V30 30 C 6.554484 4.559519 -14.282698 0 CFG=2
M  V30 31 O 10.631846 6.356750 -12.166423 0
M  V30 32 H 5.009753 3.569717 -13.167546 0
M  V30 33 H 11.817463 6.569306 -9.466838 0
M  V30 34 H 12.479702 8.612782 -1.004774 0
M  V30 35 H 12.859479 7.457345 -2.262534 0
M  V30 36 H 11.178545 7.721033 -1.782267 0
M  V30 37 H 7.743161 2.756700 -12.291678 0
M  V30 38 H 6.234851 1.959251 -11.891689 0
M  V30 39 H 9.276717 9.094463 -6.060135 0
M  V30 40 H 8.569689 9.140056 -8.419471 0
M  V30 41 H 11.226788 9.813916 -5.975188 0
M  V30 42 H 5.252243 5.410587 -11.809948 0
M  V30 43 H 6.200971 4.302932 -10.872205 0
M  V30 44 H 13.018525 9.762666 -3.171019 0
M  V30 45 H 11.434695 10.152163 -2.560798 0
M  V30 46 H 5.688906 -0.131080 -13.163405 0
M  V30 47 H 6.086647 -0.228075 -14.866520 0
M  V30 48 H 4.945401 0.969392 -14.291713 0
M  V30 49 H 12.537218 6.509142 -7.091625 0
M  V30 50 H 8.480889 2.704040 -17.981875 0
M  V30 51 H 6.989249 6.806925 -11.795840 0
M  V30 52 H 7.798792 6.318893 -9.529769 0
M  V30 53 H 7.604266 4.773044 -16.912448 0
M  V30 54 H 10.331643 8.569350 -11.090810 0
M  V30 55 H 8.670484 8.292338 -10.637287 0
M  V30 56 H 8.072578 0.093714 -12.452139 0
M  V30 57 H 9.163873 1.208972 -13.240364 0
M  V30 58 H 8.533953 -0.173911 -14.134541 0
M  V30 59 H 9.008651 4.553297 -11.376419 0
M  V30 60 H 5.725764 5.089502 -14.753619 0
M  V30 END ATOM
M  V30 BEGIN BOND
M  V30 1 1 4 3
M  V30 2 1 7 2
M  V30 3 1 7 5
M  V30 4 1 8 5
M  V30 5 1 10 9
M  V30 6 2 13 3
M  V30 7 1 13 12
M  V30 8 1 14 9
M  V30 9 2 14 12
M  V30 10 1 15 10
M  V30 11 1 16 2
M  V30 12 1 17 6
M  V30 13 1 17 10
M  V30 14 1 18 5
M  V30 15 2 19 4
M  V30 16 1 19 14
M  V30 17 1 20 1
M  V30 18 1 21 16
M  V30 19 1 23 1
M  V30 20 2 23 8
M  V30 21 2 24 9
M  V30 22 1 25 21
M  V30 23 1 26 3
M  V30 24 1 26 11
M  V30 25 1 27 5
M  V30 26 1 28 11
M  V30 27 1 28 21
M  V30 28 1 28 22
M  V30 29 1 29 8
M  V30 30 2 29 20
M  V30 31 1 30 2
M  V30 32 1 30 23
M  V30 33 1 30 25
M  V30 34 2 31 11
M  V30 35 1 2 32 CFG=3
M  V30 36 1 33 4
M  V30 37 1 34 6
M  V30 38 1 35 6
M  V30 39 1 36 6
M  V30 40 1 37 7
M  V30 41 1 38 7
M  V30 42 1 39 12
M  V30 43 1 40 13
M  V30 44 1 41 15
M  V30 45 1 42 16
M  V30 46 1 43 16
M  V30 47 1 44 17
M  V30 48 1 45 17
M  V30 49 1 46 18
M  V30 50 1 47 18
M  V30 51 1 48 18
M  V30 52 1 49 19
M  V30 53 1 50 20
M  V30 54 1 21 51 CFG=1
M  V30 55 1 52 22
M  V30 56 1 53 1
M  V30 57 1 54 26
M  V30 58 1 55 26
M  V30 59 1 56 27
M  V30 60 1 57 27
M  V30 61 1 58 27
M  V30 62 1 28 59 CFG=3
M  V30 63 1 30 60 CFG=3
M  V30 END BOND
M  V30 END CTAB
M  END
>  <i_epik_Tot_Q>  (1) 
0

>  <i_epik_Tot_abs_Q>  (1) 
0

>  <i_i_glide_confnum>  (1) 
154

>  <i_i_glide_lignum>  (1) 
61

>  <i_i_glide_posenum>  (1) 
300

>  <i_i_glide_rotatable_bonds>  (1) 
9

>  <i_lp_mmshare_version>  (1) 
72125

>  <i_m_source_file_index>  (1) 
35

>  <i_f3d_flags>  (1) 
0

>  <num_sample>  (1) 
100

>  <b_lp_Chiralities_Consistent>  (1) 
1

>  <r_epik_Charging_Adjusted_Penalty>  (1) 
1.1277689447001258

>  <r_epik_Ionization_Penalty>  (1) 
0.43889215687938127

>  <r_epik_Ionization_Penalty_Charging>  (1) 
0.41727290489040414

>  <r_epik_Ionization_Penalty_Neutral>  (1) 
0.021619251988977111

>  <r_epik_State_Penalty>  (1) 
0.71049603980972165

>  <r_glide_ring_energy>  (1) 
0

>  <r_i_docking_score>  (1) 
-3.2924632328896299

>  <r_i_glide_ecoul>  (1) 
-3.3820255412506999

>  <r_i_glide_eff_state_penalty>  (1) 
0.71049603980972165

>  <r_i_glide_einternal>  (1) 
13.56783968512822

>  <r_i_glide_emodel>  (1) 
-40.290544495448238

>  <r_i_glide_emodel_strain>  (1) 
1.1541694276950381

>  <r_i_glide_energy>  (1) 
-39.128739565373508

>  <r_i_glide_erotb>  (1) 
0.6096786253841594

>  <r_i_glide_esite>  (1) 
-0.034750408917427811

>  <r_i_glide_evdw>  (1) 
-35.746714024122809

>  <r_i_glide_gscore>  (1) 
-4.0029592726993517

>  <r_i_glide_gscore_strain>  (1) 
0

>  <r_i_glide_hbond>  (1) 
-0.16

>  <r_i_glide_ligand_efficiency>  (1) 
-0.10620849138353645

>  <r_i_glide_ligand_efficiency_ln>  (1) 
-0.74255136089684215

>  <r_i_glide_ligand_efficiency_sa>  (1) 
-0.33364129995191943

>  <r_i_glide_lipo>  (1) 
-2.2836038972322359

>  <r_i_glide_metal>  (1) 
-0

>  <r_i_glide_rewards>  (1) 
0.16035594045989865

>  <r_lp_Energy>  (1) 
35.794798

>  <r_lp_tautomer_probability>  (1) 
0.49995000249987359

>  <s_epik_Chemistry_Notes>  (1) 
This compound has a N-S or N-O group and may undergo hydrolysis at high or low pH.

>  <s_epik_cmdline>  (1) 
J2VwaWtfcHl0aG9uJywgJy1waHQnLCAnMS4wJywgJy1waCcsICc3LjQnLCAnLXRuJywgJzgnLCAnLW1hJywgJzUwMCcsICctaW1hZScsICc8aW5maWxlLm1hZT4nLCAnLW9tYWUnLCAnPG91dGZpbGUubWFlPic=

>  <s_epik_input>  (1) 
TjE9W0NIXU49QyhDKFtDSDJdMikoW0NIM10pW0NIM10pW0NASF0xW0NAQEhdKFtDQEBIXTIzKVNbQ0BASF0oW0NIMl0zKVtDQEhdKFtPSF0pQyg9TylbQ0gyXWM0W2NIXVtjSF1jKFtjSF1bY0hdNClDKD1PKU4oW09IXSlbQ0gyXVtDSDNd

>  <s_glide_docking_method>  (1) 
confgen

>  <s_i_glide_gridfile>  (1) 
gpcr_drd2_6luq_protein_autoprepared_prepared

>  <s_lp_Force_Field>  (1) 
S-OPLS

>  <s_lp_Variant>  (1) 
DiffSBDD_34_num_sample_100-2

>  <s_m_source_file>  (1) 
generated__ligand_DiffSBDD_2026-05-06_prepared.sdf

>  <GenAI_Model>  (1) 
DiffSBDD

>  <Protein>  (1) 
generic_title2

$$$$
DiffSBDD_3_num_sample_100
     RDKit          3D

  0  0  0  0  0  0  0  0  0  0999 V3000
M  V30 BEGIN CTAB
M  V30 COUNTS 43 44 0 0 1
M  V30 BEGIN ATOM
M  V30 1 C 9.261056 6.191088 -8.224633 0
M  V30 2 O 11.124583 8.715519 -5.312224 0
M  V30 3 C 9.580921 4.791359 -12.645595 0
M  V30 4 O 12.203796 8.969304 -9.268548 0 CHG=-1
M  V30 5 C 8.899026 5.936941 -11.883036 0
M  V30 6 C 9.846392 6.989392 -7.223748 0
M  V30 7 C 8.214911 5.170784 -7.863166 0
M  V30 8 C 9.055926 3.365172 -12.368776 0
M  V30 9 C 7.466208 3.041019 -14.471568 0
M  V30 10 O 9.037135 5.553746 -10.521681 0
M  V30 11 C 6.357226 5.411751 -14.423255 0
M  V30 12 C 10.829813 7.939746 -7.565468 0
M  V30 13 C 11.233898 8.079263 -8.920007 0
M  V30 14 C 7.399735 6.196820 -12.142916 0
M  V30 15 C 7.001743 6.545293 -13.593527 0
M  V30 16 C 7.683895 2.950328 -12.947587 0
M  V30 17 C 9.638796 6.345881 -9.568507 0
M  V30 18 C 10.633833 7.290631 -9.915828 0
M  V30 19 C 11.434911 8.787274 -6.502315 0
M  V30 20 C 7.340536 4.441043 -15.108665 0
M  V30 21 H 9.664113 5.003803 -13.705350 0
M  V30 22 H 10.612630 4.805833 -12.291667 0
M  V30 23 H 9.409093 6.860749 -12.141555 0
M  V30 24 H 9.539867 6.872472 -6.194084 0
M  V30 25 H 7.424061 5.206115 -8.606878 0
M  V30 26 H 8.644386 4.170389 -7.891649 0
M  V30 27 H 7.776312 5.369301 -6.886269 0
M  V30 28 H 9.805909 2.648504 -12.691673 0
M  V30 29 H 9.034835 3.217900 -11.290522 0
M  V30 30 H 8.234862 2.473217 -14.991324 0
M  V30 31 H 6.541882 2.506177 -14.688808 0
M  V30 32 H 5.791460 5.897279 -15.219511 0
M  V30 33 H 5.608248 4.874048 -13.841341 0
M  V30 34 H 6.773436 5.408440 -11.735557 0
M  V30 35 H 7.143431 7.058720 -11.525915 0
M  V30 36 H 7.834840 6.997456 -14.130887 0
M  V30 37 H 6.253753 7.336542 -13.525729 0
M  V30 38 H 7.556494 1.897891 -12.691680 0
M  V30 39 H 6.869389 3.438957 -12.423354 0
M  V30 40 H 10.947352 7.403354 -10.939778 0
M  V30 41 H 12.186910 9.490303 -6.858185 0
M  V30 42 H 8.307998 4.910950 -15.261317 0
M  V30 43 H 6.985669 4.278639 -16.127044 0
M  V30 END ATOM
M  V30 BEGIN BOND
M  V30 1 1 5 3
M  V30 2 2 6 1
M  V30 3 1 7 1
M  V30 4 1 8 3
M  V30 5 1 10 5
M  V30 6 1 12 6
M  V30 7 1 13 4
M  V30 8 2 13 12
M  V30 9 1 14 5
M  V30 10 1 15 11
M  V30 11 1 15 14
M  V30 12 1 16 8
M  V30 13 1 16 9
M  V30 14 1 17 1
M  V30 15 1 17 10
M  V30 16 1 18 13
M  V30 17 2 18 17
M  V30 18 2 19 2
M  V30 19 1 19 12
M  V30 20 1 20 9
M  V30 21 1 20 11
M  V30 22 1 21 3
M  V30 23 1 22 3
M  V30 24 1 23 5
M  V30 25 1 24 6
M  V30 26 1 25 7
M  V30 27 1 26 7
M  V30 28 1 27 7
M  V30 29 1 28 8
M  V30 30 1 29 8
M  V30 31 1 30 9
M  V30 32 1 31 9
M  V30 33 1 32 11
M  V30 34 1 33 11
M  V30 35 1 34 14
M  V30 36 1 35 14
M  V30 37 1 36 15
M  V30 38 1 37 15
M  V30 39 1 38 16
M  V30 40 1 39 16
M  V30 41 1 40 18
M  V30 42 1 41 19
M  V30 43 1 42 20
M  V30 44 1 43 20
M  V30 END BOND
M  V30 END CTAB
M  END
>  <i_epik_Tot_Q>  (1) 
-1

>  <i_epik_Tot_abs_Q>  (1) 
1

>  <i_i_glide_confnum>  (1) 
85

>  <i_i_glide_lignum>  (1) 
6

>  <i_i_glide_posenum>  (1) 
182

>  <i_i_glide_rotatable_bonds>  (1) 
3

>  <i_lp_mmshare_version>  (1) 
72125

>  <i_m_source_file_index>  (1) 
4

>  <i_f3d_flags>  (1) 
0

>  <num_sample>  (1) 
100

>  <b_lp_Chiralities_Consistent>  (1) 
1

>  <r_epik_Charging_Adjusted_Penalty>  (1) 
2.3608621275216617

>  <r_epik_Ionization_Penalty>  (1) 
1.1804310637608308

>  <r_epik_Ionization_Penalty_Charging>  (1) 
1.1804310637608308

>  <r_epik_Ionization_Penalty_Neutral>  (1) 
0

>  <r_epik_State_Penalty>  (1) 
1.1804310637608308

>  <r_glide_ring_energy>  (1) 
1.1225479396224809

>  <r_i_docking_score>  (1) 
-3.2892845924600929

>  <r_i_glide_ecoul>  (1) 
0.52759779929419692

>  <r_i_glide_eff_state_penalty>  (1) 
1.1804310637608308

>  <r_i_glide_einternal>  (1) 
1.4922799667185744

>  <r_i_glide_emodel>  (1) 
-32.695160227733858

>  <r_i_glide_emodel_strain>  (1) 
0.25019587003386334

>  <r_i_glide_energy>  (1) 
-28.168784437931876

>  <r_i_glide_erotb>  (1) 
0.47404219121644042

>  <r_i_glide_esite>  (1) 
0

>  <r_i_glide_evdw>  (1) 
-28.696382237226072

>  <r_i_glide_gscore>  (1) 
-4.4697156562209237

>  <r_i_glide_gscore_strain>  (1) 
0

>  <r_i_glide_hbond>  (1) 
0

>  <r_i_glide_ligand_efficiency>  (1) 
-0.16446422962300464

>  <r_i_glide_ligand_efficiency_ln>  (1) 
-0.8231994456261329

>  <r_i_glide_ligand_efficiency_sa>  (1) 
-0.44642460218839375

>  <r_i_glide_lipo>  (1) 
-1.1069060011374756

>  <r_i_glide_metal>  (1) 
-0

>  <r_i_glide_rewards>  (1) 
-2.4811724043327148

>  <r_lp_Energy>  (1) 
27.878793999999999

>  <s_epik_cmdline>  (1) 
J2VwaWtfcHl0aG9uJywgJy1waHQnLCAnMS4wJywgJy1waCcsICc3LjQnLCAnLXRuJywgJzgnLCAnLW1hJywgJzUwMCcsICctaW1hZScsICc8aW5maWxlLm1hZT4nLCAnLW9tYWUnLCAnPG91dGZpbGUubWFlPic=

>  <s_epik_input>  (1) 
W0NIM11jMVtjSF1jKFtDSF09TyljKFtPSF0pW2NIXWMxT1tDSF0yW0NIMl1bQ0gyXVtDSDJdW0NIMl1bQ0gyXVtDSDJdW0NIMl1bQ0gyXTI=

>  <s_glide_docking_method>  (1) 
confgen

>  <s_i_glide_gridfile>  (1) 
gpcr_drd2_6luq_protein_autoprepared_prepared

>  <s_lp_Force_Field>  (1) 
S-OPLS

>  <s_lp_Variant>  (1) 
DiffSBDD_3_num_sample_100-2

>  <s_m_source_file>  (1) 
generated__ligand_DiffSBDD_2026-05-06_prepared.sdf

>  <GenAI_Model>  (1) 
DiffSBDD

>  <Protein>  (1) 
generic_title2

$$$$
DiffSBDD_80_num_sample_100
     RDKit          3D

  0  0  0  0  0  0  0  0  0  0999 V3000
M  V30 BEGIN CTAB
M  V30 COUNTS 57 60 0 0 1
M  V30 BEGIN ATOM
M  V30 1 C 19.434520 6.751042 -20.451391 0
M  V30 2 C 15.250139 6.861598 -19.956026 0
M  V30 3 O 19.368864 9.946831 -20.300802 0
M  V30 4 C 12.086879 5.544017 -18.002823 0
M  V30 5 C 19.438271 9.633114 -19.114071 0
M  V30 6 C 12.742405 7.133875 -20.278105 0
M  V30 7 C 18.753633 8.373066 -18.573568 0
M  V30 8 C 20.204329 10.487816 -18.113634 0
M  V30 9 C 16.595411 5.176585 -21.100879 0
M  V30 10 C 17.331239 6.230045 -18.988694 0 CFG=2
M  V30 11 C 11.361631 7.211567 -19.680190 0 CFG=2
M  V30 12 O 5.932419 6.163465 -17.900029 0 CHG=-1
M  V30 13 C 9.720873 5.782106 -18.541011 0
M  V30 14 C 16.602515 6.627928 -17.687651 0
M  V30 15 C 11.091961 6.124954 -18.691612 0
M  V30 16 C 7.724062 4.630035 -17.484506 0
M  V30 17 C 13.507643 5.837271 -18.262633 0
M  V30 18 F 7.343987 4.873708 -16.226510 0
M  V30 19 C 13.847402 6.584969 -19.409692 0
M  V30 20 C 20.408794 5.841234 -19.689058 0
M  V30 21 C 9.219614 4.958835 -17.600548 0
M  V30 22 C 8.895893 6.388580 -19.500481 0
M  V30 23 C 18.252513 7.340528 -19.623869 0 CFG=2
M  V30 24 O 12.927943 7.553264 -21.420738 0
M  V30 25 S 9.774725 7.369305 -20.692943 0
M  V30 26 N 16.227582 5.788866 -19.830795 0
M  V30 27 F 7.569480 3.316439 -17.660460 0
M  V30 28 C 14.489367 5.197232 -17.314183 0
M  V30 29 C 15.801777 5.499561 -17.089578 0
M  V30 30 C 7.554953 6.224440 -19.530835 0
M  V30 31 C 6.767403 5.369087 -18.525096 0 CFG=2
M  V30 32 H 19.060382 6.196786 -21.308632 0
M  V30 33 H 20.012792 7.558500 -20.897632 0
M  V30 34 H 15.164200 7.023621 -21.030141 0
M  V30 35 H 15.578871 7.848798 -19.634567 0
M  V30 36 H 11.849029 4.788856 -17.271731 0
M  V30 37 H 19.422855 7.885133 -17.870423 0
M  V30 38 H 17.914267 8.748868 -17.991132 0
M  V30 39 H 19.511576 10.969237 -17.423221 0
M  V30 40 H 20.773583 11.260853 -18.630132 0
M  V30 41 H 20.897158 9.872732 -17.539463 0
M  V30 42 H 17.349987 4.403370 -20.954265 0
M  V30 43 H 16.975728 5.912600 -21.809070 0
M  V30 44 H 15.720734 4.706681 -21.551806 0
M  V30 45 H 17.937294 5.355386 -18.756575 0
M  V30 46 H 11.388194 8.128666 -19.091648 0
M  V30 47 H 17.361710 6.835434 -16.933238 0
M  V30 48 H 16.014618 7.544513 -17.697508 0
M  V30 49 H 21.302287 5.654648 -20.285490 0
M  V30 50 H 19.960087 4.870475 -19.491665 0
M  V30 51 H 20.734188 6.275285 -18.744246 0
M  V30 52 H 9.868203 4.500088 -16.873340 0
M  V30 53 H 17.654524 7.914643 -20.331619 0
M  V30 54 H 14.097863 4.381549 -16.723120 0
M  V30 55 H 16.335436 4.903668 -16.364011 0
M  V30 56 H 6.977283 6.712105 -20.302124 0
M  V30 57 H 6.374075 4.581057 -19.168750 0
M  V30 END ATOM
M  V30 BEGIN BOND
M  V30 1 2 5 3
M  V30 2 1 7 5
M  V30 3 1 8 5
M  V30 4 1 11 6
M  V30 5 1 14 10
M  V30 6 2 15 4
M  V30 7 1 15 11
M  V30 8 1 15 13
M  V30 9 1 17 4
M  V30 10 1 18 16
M  V30 11 1 19 2
M  V30 12 1 19 6
M  V30 13 2 19 17
M  V30 14 1 20 1
M  V30 15 2 21 13
M  V30 16 1 21 16
M  V30 17 1 22 13
M  V30 18 1 23 1
M  V30 19 1 23 7
M  V30 20 1 23 10
M  V30 21 2 24 6
M  V30 22 1 25 11
M  V30 23 1 25 22
M  V30 24 1 26 2
M  V30 25 1 26 9
M  V30 26 1 26 10
M  V30 27 1 27 16
M  V30 28 1 28 17
M  V30 29 1 29 14
M  V30 30 2 29 28
M  V30 31 2 30 22
M  V30 32 1 31 12
M  V30 33 1 31 16
M  V30 34 1 31 30
M  V30 35 1 32 1
M  V30 36 1 33 1
M  V30 37 1 34 2
M  V30 38 1 35 2
M  V30 39 1 36 4
M  V30 40 1 37 7
M  V30 41 1 38 7
M  V30 42 1 39 8
M  V30 43 1 40 8
M  V30 44 1 41 8
M  V30 45 1 42 9
M  V30 46 1 43 9
M  V30 47 1 44 9
M  V30 48 1 10 45 CFG=1
M  V30 49 1 11 46 CFG=1
M  V30 50 1 47 14
M  V30 51 1 48 14
M  V30 52 1 49 20
M  V30 53 1 50 20
M  V30 54 1 51 20
M  V30 55 1 52 21
M  V30 56 1 23 53 CFG=3
M  V30 57 1 54 28
M  V30 58 1 55 29
M  V30 59 1 56 30
M  V30 60 1 31 57 CFG=3
M  V30 END BOND
M  V30 END CTAB
M  END
>  <i_epik_Tot_Q>  (1) 
-1

>  <i_epik_Tot_abs_Q>  (1) 
1

>  <i_i_glide_confnum>  (1) 
5

>  <i_i_glide_lignum>  (1) 
163

>  <i_i_glide_posenum>  (1) 
202

>  <i_i_glide_rotatable_bonds>  (1) 
4

>  <i_lp_mmshare_version>  (1) 
72125

>  <i_m_source_file_index>  (1) 
81

>  <i_f3d_flags>  (1) 
0

>  <num_sample>  (1) 
100

>  <b_lp_Chiralities_Consistent>  (1) 
1

>  <r_epik_Charging_Adjusted_Penalty>  (1) 
8.7803366933407872e-06

>  <r_epik_Ionization_Penalty>  (1) 
0.00048743314384941063

>  <r_epik_Ionization_Penalty_Charging>  (1) 
8.7803366933407872e-06

>  <r_epik_Ionization_Penalty_Neutral>  (1) 
0.00047865280715606983

>  <r_epik_State_Penalty>  (1) 
-0

>  <r_glide_ring_energy>  (1) 
0

>  <r_i_docking_score>  (1) 
-3.2770621233756358

>  <r_i_glide_ecoul>  (1) 
-0.56272199122707001

>  <r_i_glide_eff_state_penalty>  (1) 
-0

>  <r_i_glide_einternal>  (1) 
5.0271606185417745

>  <r_i_glide_emodel>  (1) 
-28.38314350048023

>  <r_i_glide_emodel_strain>  (1) 
0.13161688230903223

>  <r_i_glide_energy>  (1) 
-25.656802801559721

>  <r_i_glide_erotb>  (1) 
0.20077648214602295

>  <r_i_glide_esite>  (1) 
0

>  <r_i_glide_evdw>  (1) 
-25.094080810332652

>  <r_i_glide_gscore>  (1) 
-3.2770621233756358

>  <r_i_glide_gscore_strain>  (1) 
0

>  <r_i_glide_hbond>  (1) 
0

>  <r_i_glide_ligand_efficiency>  (1) 
-0.10571168139921407

>  <r_i_glide_ligand_efficiency_ln>  (1) 
-0.73907793871411342

>  <r_i_glide_ligand_efficiency_sa>  (1) 
-0.3320806306792542

>  <r_i_glide_lipo>  (1) 
-1.3090270813648164

>  <r_i_glide_metal>  (1) 
-0

>  <r_i_glide_rewards>  (1) 
-0.82969918495614925

>  <r_lp_Energy>  (1) 
60.210590999999994

>  <r_lp_tautomer_probability>  (1) 
1

>  <s_epik_cmdline>  (1) 
J2VwaWtfcHl0aG9uJywgJy1waHQnLCAnMS4wJywgJy1waCcsICc3LjQnLCAnLXRuJywgJzgnLCAnLW1hJywgJzUwMCcsICctaW1hZScsICc8aW5maWxlLm1hZT4nLCAnLW9tYWUnLCAnPG91dGZpbGUubWFlPic=

>  <s_epik_input>  (1) 
Tz1DKFtDSDNdKVtDSDJdW0NAQEhdKFtDSDJdW0NIM10pW0NAQEhdKFtDSDJdL1tDSF09W0NIXVwxKU4oW0NIM10pW0NIMl1DKEMyPU8pPUMxW0NIXT1DKFtDQEhdMjMpQz00QyhTMyk9W0NIXVtDQEhdKFtPSF0pQyhGKShGKVtDSF00

>  <s_glide_docking_method>  (1) 
confgen

>  <s_i_glide_gridfile>  (1) 
gpcr_drd2_6luq_protein_autoprepared_prepared

>  <s_lp_Force_Field>  (1) 
S-OPLS

>  <s_lp_Variant>  (1) 
DiffSBDD_80_num_sample_100-2

>  <s_m_source_file>  (1) 
generated__ligand_DiffSBDD_2026-05-06_prepared.sdf

>  <GenAI_Model>  (1) 
DiffSBDD

>  <Protein>  (1) 
generic_title2

$$$$
DiffSBDD_6_num_sample_100
     RDKit          3D

  0  0  0  0  0  0  0  0  0  0999 V3000
M  V30 BEGIN CTAB
M  V30 COUNTS 64 67 0 0 1
M  V30 BEGIN ATOM
M  V30 1 N 7.676286 4.511800 -19.850912 0
M  V30 2 N 14.200525 5.794397 -19.407878 0
M  V30 3 C 14.666024 5.943707 -18.077722 0
M  V30 4 C 12.317607 6.127455 -17.030941 0
M  V30 5 C 7.242068 4.940008 -14.900328 0
M  V30 6 N 11.433636 3.951448 -19.985929 0
M  V30 7 C 6.970029 5.013629 -18.718521 0
M  V30 8 F 16.794893 4.967900 -18.602551 0
M  V30 9 C 9.969174 3.988278 -22.764236 0
M  V30 10 C 7.345069 4.926480 -21.219047 0
M  V30 11 C 12.217866 4.397802 -18.811662 0 CFG=1
M  V30 12 F 7.802768 3.741718 -15.059227 0
M  V30 13 C 10.130784 4.627464 -20.206436 0 CFG=2
M  V30 14 C 12.815167 5.468566 -19.728064 0 CFG=2
M  V30 15 C 12.581078 4.397581 -20.801348 0
M  V30 16 F 8.115405 5.729593 -14.282704 0
M  V30 17 C 5.394712 7.317150 -17.380764 0
M  V30 18 C 5.283062 6.840493 -18.619213 0
M  V30 19 C 6.826291 5.538690 -16.238306 0
M  V30 20 C 8.932443 3.728121 -19.776585 0 CFG=1
M  V30 21 F 15.589202 4.821542 -20.960379 0
M  V30 22 C 5.577924 5.448614 -18.997057 0
M  V30 23 C 5.906402 6.565638 -16.229476 0
M  V30 24 C 11.609651 4.853644 -17.501535 0
M  V30 25 C 9.107170 2.683049 -18.635412 0
M  V30 26 F 16.729190 7.120894 -18.226753 0
M  V30 27 C 13.847039 6.072525 -16.994775 0
M  V30 28 C 9.868279 5.094618 -21.681615 0 CFG=2
M  V30 29 C 7.485952 5.022492 -17.470054 0
M  V30 30 C 16.189167 5.941741 -17.921510 0
M  V30 31 C 8.492015 5.788323 -21.778629 0
M  V30 32 C 15.069166 5.984776 -20.568836 0
M  V30 33 F 6.186390 4.785558 -14.102916 0
M  V30 34 H 11.976225 6.350612 -16.018881 0
M  V30 35 H 11.997363 6.979267 -17.635417 0
M  V30 36 H 9.119697 3.308889 -22.752803 0
M  V30 37 H 10.004527 4.434538 -23.758731 0
M  V30 38 H 10.858216 3.371299 -22.654555 0
M  V30 39 H 7.181156 4.040659 -21.835054 0
M  V30 40 H 6.457846 5.541369 -21.318408 0
M  V30 41 H 12.962604 3.620550 -18.617239 0
M  V30 42 H 10.106222 5.534334 -19.602945 0
M  V30 43 H 12.188260 6.352818 -19.862688 0
M  V30 44 H 13.337056 3.610218 -20.826483 0
M  V30 45 H 12.349201 4.756173 -21.799197 0
M  V30 46 H 5.070081 8.328993 -17.209124 0
M  V30 47 H 4.894848 7.478718 -19.399472 0
M  V30 48 H 8.813257 3.038544 -20.616676 0
M  V30 49 H 5.120307 5.159109 -19.939754 0
M  V30 50 H 5.033087 4.832703 -18.291734 0
M  V30 51 H 5.557525 6.889180 -15.258144 0
M  V30 52 H 10.552479 5.074701 -17.581660 0
M  V30 53 H 11.707276 4.073720 -16.744414 0
M  V30 54 H 9.727270 1.853131 -18.969208 0
M  V30 55 H 8.148190 2.255144 -18.339512 0
M  V30 56 H 9.605088 3.047667 -17.743164 0
M  V30 57 H 14.292689 6.175673 -16.016509 0
M  V30 58 H 10.595840 5.869708 -21.929455 0
M  V30 59 H 8.465567 4.632406 -17.343140 0
M  V30 60 H 16.455076 5.749086 -16.886813 0
M  V30 61 H 8.279619 6.060711 -22.813366 0
M  V30 62 H 8.515824 6.730175 -21.226273 0
M  V30 63 H 14.502824 6.381497 -21.412773 0
M  V30 64 H 15.888840 6.673286 -20.378463 0
M  V30 END ATOM
M  V30 BEGIN BOND
M  V30 1 1 3 2
M  V30 2 1 7 1
M  V30 3 1 10 1
M  V30 4 1 11 6
M  V30 5 1 12 5
M  V30 6 1 13 6
M  V30 7 1 14 2
M  V30 8 1 14 11
M  V30 9 1 15 6
M  V30 10 1 15 14
M  V30 11 1 16 5
M  V30 12 2 18 17
M  V30 13 1 19 5
M  V30 14 1 20 1
M  V30 15 1 20 13
M  V30 16 1 22 7
M  V30 17 1 22 18
M  V30 18 1 23 17
M  V30 19 2 23 19
M  V30 20 1 24 4
M  V30 21 1 24 11
M  V30 22 1 25 20
M  V30 23 2 27 3
M  V30 24 1 27 4
M  V30 25 1 28 9
M  V30 26 1 28 13
M  V30 27 2 29 7
M  V30 28 1 29 19
M  V30 29 1 30 3
M  V30 30 1 30 8
M  V30 31 1 30 26
M  V30 32 1 31 10
M  V30 33 1 31 28
M  V30 34 1 32 2
M  V30 35 1 32 21
M  V30 36 1 33 5
M  V30 37 1 34 4
M  V30 38 1 35 4
M  V30 39 1 36 9
M  V30 40 1 37 9
M  V30 41 1 38 9
M  V30 42 1 39 10
M  V30 43 1 40 10
M  V30 44 1 11 41 CFG=1
M  V30 45 1 13 42 CFG=1
M  V30 46 1 14 43 CFG=3
M  V30 47 1 44 15
M  V30 48 1 45 15
M  V30 49 1 46 17
M  V30 50 1 47 18
M  V30 51 1 20 48 CFG=3
M  V30 52 1 49 22
M  V30 53 1 50 22
M  V30 54 1 51 23
M  V30 55 1 52 24
M  V30 56 1 53 24
M  V30 57 1 54 25
M  V30 58 1 55 25
M  V30 59 1 56 25
M  V30 60 1 57 27
M  V30 61 1 28 58 CFG=3
M  V30 62 1 59 29
M  V30 63 1 60 30
M  V30 64 1 61 31
M  V30 65 1 62 31
M  V30 66 1 63 32
M  V30 67 1 64 32
M  V30 END BOND
M  V30 END CTAB
M  END
>  <i_epik_Tot_Q>  (1) 
0

>  <i_epik_Tot_abs_Q>  (1) 
0

>  <i_i_glide_confnum>  (1) 
17

>  <i_i_glide_lignum>  (1) 
9

>  <i_i_glide_posenum>  (1) 
156

>  <i_i_glide_rotatable_bonds>  (1) 
5

>  <i_lp_mmshare_version>  (1) 
72125

>  <i_m_source_file_index>  (1) 
7

>  <i_f3d_flags>  (1) 
0

>  <num_sample>  (1) 
100

>  <b_lp_Chiralities_Consistent>  (1) 
1

>  <r_epik_Charging_Adjusted_Penalty>  (1) 
0.092622925798260772

>  <r_epik_Ionization_Penalty>  (1) 
0.092625697702171175

>  <r_epik_Ionization_Penalty_Charging>  (1) 
0.00035560143118834142

>  <r_epik_Ionization_Penalty_Neutral>  (1) 
0.092270096270982829

>  <r_epik_State_Penalty>  (1) 
0.092267324367072426

>  <r_glide_ring_energy>  (1) 
0.067460085264339317

>  <r_i_docking_score>  (1) 
-3.2595727303318132

>  <r_i_glide_ecoul>  (1) 
-0.4597726586481018

>  <r_i_glide_eff_state_penalty>  (1) 
0.092267324367072426

>  <r_i_glide_einternal>  (1) 
1.2805955893079854

>  <r_i_glide_emodel>  (1) 
-24.60046223979214

>  <r_i_glide_emodel_strain>  (1) 
0

>  <r_i_glide_energy>  (1) 
-19.808301848974619

>  <r_i_glide_erotb>  (1) 
0.17904337208641333

>  <r_i_glide_esite>  (1) 
-0.017944826758990187

>  <r_i_glide_evdw>  (1) 
-19.348529190326516

>  <r_i_glide_gscore>  (1) 
-3.3518400546988856

>  <r_i_glide_gscore_strain>  (1) 
0

>  <r_i_glide_hbond>  (1) 
0

>  <r_i_glide_ligand_efficiency>  (1) 
-0.098774931222176163

>  <r_i_glide_ligand_efficiency_ln>  (1) 
-0.72491209806144397

>  <r_i_glide_ligand_efficiency_sa>  (1) 
-0.31682398283810664

>  <r_i_glide_lipo>  (1) 
-1.5687884914058243

>  <r_i_glide_metal>  (1) 
-0

>  <r_i_glide_rewards>  (1) 
-0.90775775030694372

>  <r_lp_Energy>  (1) 
53.872712999999997

>  <s_epik_Chemistry_Notes>  (1) 
This compound has an imine and may undergo hydrolysis.

>  <s_epik_cmdline>  (1) 
J2VwaWtfcHl0aG9uJywgJy1waHQnLCAnMS4wJywgJy1waCcsICc3LjQnLCAnLXRuJywgJzgnLCAnLW1hJywgJzUwMCcsICctaW1hZScsICc8aW5maWxlLm1hZT4nLCAnLW9tYWUnLCAnPG91dGZpbGUubWFlPic=

>  <s_epik_input>  (1) 
W0NIMl0xW0NIXT1bQ0hdW0NIXT1DKEMoRikoRilGKVtDSF09QzFOMltDSDJdW0NIMl1bQ0BIXShbQ0gzXSlbQ0BASF0oW0NASF0yW0NIM10pTjNbQ0gyXVtDQEBIXShbQ0BIXTM0KU4oW0NIMl1GKUMoW0NIXShGKUYpPVtDSF1bQ0gyXVtDSDJdNA==

>  <s_glide_docking_method>  (1) 
confgen

>  <s_i_glide_gridfile>  (1) 
gpcr_drd2_6luq_protein_autoprepared_prepared

>  <s_lp_Force_Field>  (1) 
S-OPLS

>  <s_lp_Variant>  (1) 
DiffSBDD_6_num_sample_100-1

>  <s_m_source_file>  (1) 
generated__ligand_DiffSBDD_2026-05-06_prepared.sdf

>  <GenAI_Model>  (1) 
DiffSBDD

>  <Protein>  (1) 
generic_title2

$$$$
DiffSBDD_45_num_sample_100
     RDKit          3D

  0  0  0  0  0  0  0  0  0  0999 V3000
M  V30 BEGIN CTAB
M  V30 COUNTS 63 65 0 0 1
M  V30 BEGIN ATOM
M  V30 1 C 7.201681 6.049535 -11.846700 0
M  V30 2 C 5.930470 6.468454 -19.973780 0
M  V30 3 C 8.376967 6.988060 -11.491667 0
M  V30 4 C 6.403498 9.462866 -22.381571 0 CFG=2
M  V30 5 C 6.479434 8.033777 -21.796200 0 CFG=1
M  V30 6 C 3.968665 10.078687 -22.318824 0
M  V30 7 C 7.834825 3.212916 -15.514076 0
M  V30 8 C 8.532140 4.902945 -13.678616 0 CFG=2
M  V30 9 O 7.015403 2.800886 -14.693014 0
M  V30 10 N 5.725949 7.804134 -20.548793 0
M  V30 11 Cl 5.976965 6.806945 -23.008429 0
M  V30 12 C 8.872861 4.511978 -18.224046 0 CFG=1
M  V30 13 C 10.425809 2.561021 -17.470073 0
M  V30 14 C 9.637572 6.660782 -12.247793 0
M  V30 15 C 7.451127 4.850134 -18.729946 0
M  V30 16 N 5.154541 9.718267 -23.101177 0
M  V30 17 C 9.374111 5.514186 -17.184419 0
M  V30 18 C 7.365144 6.164968 -19.522278 0
M  V30 19 C 9.706324 5.736879 -13.213673 0
M  V30 20 C 4.298270 8.090981 -20.672526 0
M  V30 21 C 8.989556 3.048589 -17.747751 0 CFG=1
M  V30 22 C 8.719301 4.442287 -15.161522 0 CFG=2
M  V30 23 F 7.401508 9.608844 -23.249108 0
M  V30 24 O 8.511906 5.531591 -16.050068 0
M  V30 25 C 7.206251 5.621419 -13.329902 0
M  V30 26 C 3.963044 9.573294 -20.867638 0
M  V30 27 N 8.002418 2.609555 -16.728400 0
M  V30 28 C 7.188876 1.435488 -17.073811 0
M  V30 29 H 6.258471 6.531754 -11.587576 0
M  V30 30 H 7.260821 5.156570 -11.223273 0
M  V30 31 H 5.583067 5.692823 -20.656530 0
M  V30 32 H 5.299376 6.371389 -19.089311 0
M  V30 33 H 8.634838 6.931494 -10.432491 0
M  V30 34 H 8.109008 8.022893 -11.707099 0
M  V30 35 H 6.587646 10.213152 -21.613042 0
M  V30 36 H 7.534951 7.848265 -21.601051 0
M  V30 37 H 3.080112 9.714321 -22.835496 0
M  V30 38 H 3.870766 11.164454 -22.295743 0
M  V30 39 H 8.592358 4.007950 -13.056342 0
M  V30 40 H 9.539898 4.603639 -19.082924 0
M  V30 41 H 11.038785 2.648795 -18.367525 0
M  V30 42 H 10.937147 3.119085 -16.691670 0
M  V30 43 H 10.431211 1.510057 -17.180078 0
M  V30 44 H 10.521495 7.219639 -11.979560 0
M  V30 45 H 7.097089 4.042593 -19.372020 0
M  V30 46 H 6.758058 4.886809 -17.888727 0
M  V30 47 H 5.313437 10.403485 -23.832401 0
M  V30 48 H 9.426042 6.494873 -17.648721 0
M  V30 49 H 10.408867 5.321643 -16.900680 0
M  V30 50 H 7.710047 6.995976 -18.909355 0
M  V30 51 H 8.033078 6.106014 -20.381320 0
M  V30 52 H 10.634840 5.564628 -13.711745 0
M  V30 53 H 3.834833 7.479533 -21.447302 0
M  V30 54 H 3.834839 7.802574 -19.730496 0
M  V30 55 H 8.740274 2.498424 -18.654735 0
M  V30 56 H 9.763683 4.169302 -15.224719 0
M  V30 57 H 7.082269 6.500603 -13.963383 0
M  V30 58 H 6.348001 4.979675 -13.525799 0
M  V30 59 H 2.971565 9.761761 -20.456587 0
M  V30 60 H 4.634837 10.169299 -20.259152 0
M  V30 61 H 6.127502 1.655136 -16.951846 0
M  V30 62 H 7.320604 1.080840 -18.095401 0
M  V30 63 H 7.434726 0.604754 -16.410818 0
M  V30 END ATOM
M  V30 BEGIN BOND
M  V30 1 1 3 1
M  V30 2 1 5 4
M  V30 3 2 9 7
M  V30 4 1 10 2
M  V30 5 1 10 5
M  V30 6 1 11 5
M  V30 7 1 14 3
M  V30 8 1 15 12
M  V30 9 1 16 4
M  V30 10 1 16 6
M  V30 11 1 17 12
M  V30 12 1 18 2
M  V30 13 1 18 15
M  V30 14 1 19 8
M  V30 15 2 19 14
M  V30 16 1 20 10
M  V30 17 1 21 12
M  V30 18 1 21 13
M  V30 19 1 22 7
M  V30 20 1 22 8
M  V30 21 1 23 4
M  V30 22 1 24 17
M  V30 23 1 24 22
M  V30 24 1 25 1
M  V30 25 1 25 8
M  V30 26 1 26 6
M  V30 27 1 26 20
M  V30 28 1 27 7
M  V30 29 1 27 21
M  V30 30 1 28 27
M  V30 31 1 29 1
M  V30 32 1 30 1
M  V30 33 1 31 2
M  V30 34 1 32 2
M  V30 35 1 33 3
M  V30 36 1 34 3
M  V30 37 1 4 35 CFG=1
M  V30 38 1 5 36 CFG=1
M  V30 39 1 37 6
M  V30 40 1 38 6
M  V30 41 1 8 39 CFG=1
M  V30 42 1 12 40 CFG=3
M  V30 43 1 41 13
M  V30 44 1 42 13
M  V30 45 1 43 13
M  V30 46 1 44 14
M  V30 47 1 45 15
M  V30 48 1 46 15
M  V30 49 1 47 16
M  V30 50 1 48 17
M  V30 51 1 49 17
M  V30 52 1 50 18
M  V30 53 1 51 18
M  V30 54 1 52 19
M  V30 55 1 53 20
M  V30 56 1 54 20
M  V30 57 1 21 55 CFG=3
M  V30 58 1 22 56 CFG=1
M  V30 59 1 57 25
M  V30 60 1 58 25
M  V30 61 1 59 26
M  V30 62 1 60 26
M  V30 63 1 61 28
M  V30 64 1 62 28
M  V30 65 1 63 28
M  V30 END BOND
M  V30 END CTAB
M  END
>  <i_epik_Tot_Q>  (1) 
0

>  <i_epik_Tot_abs_Q>  (1) 
0

>  <i_i_glide_confnum>  (1) 
254

>  <i_i_glide_lignum>  (1) 
85

>  <i_i_glide_posenum>  (1) 
297

>  <i_i_glide_rotatable_bonds>  (1) 
5

>  <i_lp_mmshare_version>  (1) 
72125

>  <i_m_source_file_index>  (1) 
46

>  <i_f3d_flags>  (1) 
0

>  <num_sample>  (1) 
100

>  <b_lp_Chiralities_Consistent>  (1) 
1

>  <r_epik_Charging_Adjusted_Penalty>  (1) 
0.015133208647659156

>  <r_epik_Ionization_Penalty>  (1) 
0.015206278080010002

>  <r_epik_Ionization_Penalty_Charging>  (1) 
0

>  <r_epik_Ionization_Penalty_Neutral>  (1) 
0.015206278080010002

>  <r_epik_State_Penalty>  (1) 
0.015133208647659156

>  <r_glide_ring_energy>  (1) 
0.92753117685039699

>  <r_i_docking_score>  (1) 
-3.2462033421808103

>  <r_i_glide_ecoul>  (1) 
0.44709846214415327

>  <r_i_glide_eff_state_penalty>  (1) 
0.015133208647659156

>  <r_i_glide_einternal>  (1) 
11.678411114224646

>  <r_i_glide_emodel>  (1) 
-16.961478434634827

>  <r_i_glide_emodel_strain>  (1) 
0.064999543090308975

>  <r_i_glide_energy>  (1) 
-19.401327511698245

>  <r_i_glide_erotb>  (1) 
0.45657733151366331

>  <r_i_glide_esite>  (1) 
-0.036521328607031486

>  <r_i_glide_evdw>  (1) 
-19.848425973842399

>  <r_i_glide_gscore>  (1) 
-3.2613365508284695

>  <r_i_glide_gscore_strain>  (1) 
0

>  <r_i_glide_hbond>  (1) 
0

>  <r_i_glide_ligand_efficiency>  (1) 
-0.11593583364931466

>  <r_i_glide_ligand_efficiency_ln>  (1) 
-0.74931904404705174

>  <r_i_glide_ligand_efficiency_sa>  (1) 
-0.3520494739047203

>  <r_i_glide_lipo>  (1) 
-1.4451451802066522

>  <r_i_glide_metal>  (1) 
-0

>  <r_i_glide_rewards>  (1) 
-1.3108908441579525

>  <r_lp_Energy>  (1) 
32.929097999999996

>  <s_epik_cmdline>  (1) 
J2VwaWtfcHl0aG9uJywgJy1waHQnLCAnMS4wJywgJy1waCcsICc3LjQnLCAnLXRuJywgJzgnLCAnLW1hJywgJzUwMCcsICctaW1hZScsICc8aW5maWxlLm1hZT4nLCAnLW9tYWUnLCAnPG91dGZpbGUubWFlPic=

>  <s_epik_input>  (1) 
W0NIMl0xW0NIMl1bQ0gyXVtDSF09W0NIXVtDQEhdMVtDQEBIXShDMj1PKU9bQ0gyXVtDQEBIXShbQ0BASF0oW0NIM10pTjJbQ0gzXSlbQ0gyXVtDSDJdW0NIMl1OKFtDQEBIXShDbClbQ0BASF0zRilbQ0gyXVtDSDJdW0NIMl1bTkhdMw==

>  <s_glide_docking_method>  (1) 
confgen

>  <s_i_glide_gridfile>  (1) 
gpcr_drd2_6luq_protein_autoprepared_prepared

>  <s_lp_Force_Field>  (1) 
S-OPLS

>  <s_lp_Variant>  (1) 
DiffSBDD_45_num_sample_100-4

>  <s_m_source_file>  (1) 
generated__ligand_DiffSBDD_2026-05-06_prepared.sdf

>  <GenAI_Model>  (1) 
DiffSBDD

>  <Protein>  (1) 
generic_title2

$$$$
DiffSBDD_3_num_sample_100
     RDKit          3D

  0  0  0  0  0  0  0  0  0  0999 V3000
M  V30 BEGIN CTAB
M  V30 COUNTS 43 44 0 0 1
M  V30 BEGIN ATOM
M  V30 1 C 9.327241 6.190263 -8.367609 0
M  V30 2 O 11.034762 8.794001 -5.414544 0
M  V30 3 C 9.332258 4.415895 -12.807534 0
M  V30 4 O 11.834849 9.369294 -9.395074 0 CHG=-1
M  V30 5 C 9.386194 5.774443 -12.080584 0
M  V30 6 C 9.848455 7.021892 -7.355073 0
M  V30 7 C 8.394531 5.062771 -8.007520 0
M  V30 8 C 8.053174 3.576485 -12.630997 0
M  V30 9 C 6.674337 4.633822 -14.548302 0
M  V30 10 O 9.162685 5.565297 -10.688884 0
M  V30 11 C 5.941817 6.766619 -13.274193 0
M  V30 12 C 10.703497 8.090995 -7.690126 0
M  V30 13 C 11.027927 8.331393 -9.049311 0
M  V30 14 C 8.458244 6.874110 -12.645227 0
M  V30 15 C 6.995716 6.873276 -12.160658 0
M  V30 16 C 7.247463 3.356932 -13.920056 0
M  V30 17 C 9.666649 6.413983 -9.717560 0
M  V30 18 C 10.515841 7.495435 -10.054540 0
M  V30 19 C 11.259415 8.961359 -6.613692 0
M  V30 20 C 5.594502 5.330319 -13.699525 0
M  V30 21 H 9.555234 4.562584 -13.864762 0
M  V30 22 H 10.163639 3.821320 -12.427102 0
M  V30 23 H 10.415722 6.079932 -12.259162 0
M  V30 24 H 9.587848 6.840112 -6.322109 0
M  V30 25 H 7.652510 4.899883 -8.789733 0
M  V30 26 H 8.979159 4.159673 -7.891680 0
M  V30 27 H 7.852996 5.295676 -7.091676 0
M  V30 28 H 8.358896 2.586994 -12.291675 0
M  V30 29 H 7.422028 3.974304 -11.837566 0
M  V30 30 H 7.472895 5.315571 -14.827191 0
M  V30 31 H 6.234881 4.354519 -15.499251 0
M  V30 32 H 6.223329 7.369294 -14.138240 0
M  V30 33 H 5.034843 7.226968 -12.887879 0
M  V30 34 H 8.882435 7.844760 -12.387574 0
M  V30 35 H 8.482297 6.841194 -13.726874 0
M  V30 36 H 6.832473 7.830960 -11.665471 0
M  V30 37 H 6.815193 6.130611 -11.384198 0
M  V30 38 H 7.882771 2.858132 -14.652441 0
M  V30 39 H 6.432533 2.661206 -13.716471 0
M  V30 40 H 10.777440 7.688993 -11.079576 0
M  V30 41 H 11.894121 9.771006 -6.970550 0
M  V30 42 H 4.677859 5.369355 -14.288089 0
M  V30 43 H 5.341487 4.734588 -12.821735 0
M  V30 END ATOM
M  V30 BEGIN BOND
M  V30 1 1 5 3
M  V30 2 2 6 1
M  V30 3 1 7 1
M  V30 4 1 8 3
M  V30 5 1 10 5
M  V30 6 1 12 6
M  V30 7 1 13 4
M  V30 8 2 13 12
M  V30 9 1 14 5
M  V30 10 1 15 11
M  V30 11 1 15 14
M  V30 12 1 16 8
M  V30 13 1 16 9
M  V30 14 1 17 1
M  V30 15 1 17 10
M  V30 16 1 18 13
M  V30 17 2 18 17
M  V30 18 2 19 2
M  V30 19 1 19 12
M  V30 20 1 20 9
M  V30 21 1 20 11
M  V30 22 1 21 3
M  V30 23 1 22 3
M  V30 24 1 23 5
M  V30 25 1 24 6
M  V30 26 1 25 7
M  V30 27 1 26 7
M  V30 28 1 27 7
M  V30 29 1 28 8
M  V30 30 1 29 8
M  V30 31 1 30 9
M  V30 32 1 31 9
M  V30 33 1 32 11
M  V30 34 1 33 11
M  V30 35 1 34 14
M  V30 36 1 35 14
M  V30 37 1 36 15
M  V30 38 1 37 15
M  V30 39 1 38 16
M  V30 40 1 39 16
M  V30 41 1 40 18
M  V30 42 1 41 19
M  V30 43 1 42 20
M  V30 44 1 43 20
M  V30 END BOND
M  V30 END CTAB
M  END
>  <i_epik_Tot_Q>  (1) 
-1

>  <i_epik_Tot_abs_Q>  (1) 
1

>  <i_i_glide_confnum>  (1) 
49

>  <i_i_glide_lignum>  (1) 
6

>  <i_i_glide_posenum>  (1) 
212

>  <i_i_glide_rotatable_bonds>  (1) 
3

>  <i_lp_mmshare_version>  (1) 
72125

>  <i_m_source_file_index>  (1) 
4

>  <i_f3d_flags>  (1) 
0

>  <num_sample>  (1) 
100

>  <b_lp_Chiralities_Consistent>  (1) 
1

>  <r_epik_Charging_Adjusted_Penalty>  (1) 
2.3608621275216617

>  <r_epik_Ionization_Penalty>  (1) 
1.1804310637608308

>  <r_epik_Ionization_Penalty_Charging>  (1) 
1.1804310637608308

>  <r_epik_Ionization_Penalty_Neutral>  (1) 
0

>  <r_epik_State_Penalty>  (1) 
1.1804310637608308

>  <r_glide_ring_energy>  (1) 
0.814425959544128

>  <r_i_docking_score>  (1) 
-3.2302522687630457

>  <r_i_glide_ecoul>  (1) 
0.59964987962089844

>  <r_i_glide_eff_state_penalty>  (1) 
1.1804310637608308

>  <r_i_glide_einternal>  (1) 
0.87755593623417827

>  <r_i_glide_emodel>  (1) 
-33.271955166402229

>  <r_i_glide_emodel_strain>  (1) 
0.064814651985031446

>  <r_i_glide_energy>  (1) 
-28.325775570888418

>  <r_i_glide_erotb>  (1) 
0.47404219121644042

>  <r_i_glide_esite>  (1) 
0

>  <r_i_glide_evdw>  (1) 
-28.925425450509316

>  <r_i_glide_gscore>  (1) 
-4.4106833325238766

>  <r_i_glide_gscore_strain>  (1) 
0

>  <r_i_glide_hbond>  (1) 
0

>  <r_i_glide_ligand_efficiency>  (1) 
-0.16151261343815229

>  <r_i_glide_ligand_efficiency_ln>  (1) 
-0.80842560202110547

>  <r_i_glide_ligand_efficiency_sa>  (1) 
-0.43841268321880383

>  <r_i_glide_lipo>  (1) 
-1.0306318868336515

>  <r_i_glide_metal>  (1) 
-0

>  <r_i_glide_rewards>  (1) 
-2.497769846324335

>  <r_lp_Energy>  (1) 
27.878793999999999

>  <s_epik_cmdline>  (1) 
J2VwaWtfcHl0aG9uJywgJy1waHQnLCAnMS4wJywgJy1waCcsICc3LjQnLCAnLXRuJywgJzgnLCAnLW1hJywgJzUwMCcsICctaW1hZScsICc8aW5maWxlLm1hZT4nLCAnLW9tYWUnLCAnPG91dGZpbGUubWFlPic=

>  <s_epik_input>  (1) 
W0NIM11jMVtjSF1jKFtDSF09TyljKFtPSF0pW2NIXWMxT1tDSF0yW0NIMl1bQ0gyXVtDSDJdW0NIMl1bQ0gyXVtDSDJdW0NIMl1bQ0gyXTI=

>  <s_glide_docking_method>  (1) 
confgen

>  <s_i_glide_gridfile>  (1) 
gpcr_drd2_6luq_protein_autoprepared_prepared

>  <s_lp_Force_Field>  (1) 
S-OPLS

>  <s_lp_Variant>  (1) 
DiffSBDD_3_num_sample_100-2

>  <s_m_source_file>  (1) 
generated__ligand_DiffSBDD_2026-05-06_prepared.sdf

>  <GenAI_Model>  (1) 
DiffSBDD

>  <Protein>  (1) 
generic_title2

$$$$
DiffSBDD_84_num_sample_100
     RDKit          3D

  0  0  0  0  0  0  0  0  0  0999 V3000
M  V30 BEGIN CTAB
M  V30 COUNTS 78 81 0 0 1
M  V30 BEGIN ATOM
M  V30 1 O 10.366976 0.028560 -17.892149 0
M  V30 2 C 6.502744 5.704686 -17.393449 0
M  V30 3 C 5.477930 0.300513 -12.510229 0
M  V30 4 C 8.678690 4.026404 -11.925558 0
M  V30 5 O 18.920335 5.154900 -19.891956 0
M  V30 6 C 9.231416 5.221414 -14.222968 0
M  V30 7 P 12.722170 1.215781 -19.326755 0 CFG=1
M  V30 8 O 16.210382 8.909260 -18.216928 0
M  V30 9 C 7.206726 3.678568 -13.923643 0
M  V30 10 C 9.367519 3.518963 -18.363527 0
M  V30 11 O 11.160912 1.665292 -19.260982 0
M  V30 12 C 13.787984 5.383639 -17.730389 0
M  V30 13 C 8.147496 4.419849 -18.550750 0
M  V30 14 O 8.500883 1.755634 -16.954763 0
M  V30 15 C 10.253451 1.121321 -18.450099 0
M  V30 16 O 15.607953 3.884958 -20.294621 0
M  V30 17 C 13.473875 2.732201 -20.065456 0
M  V30 18 C 8.256262 4.531455 -13.294680 0
M  V30 19 C 14.394277 6.069184 -18.944484 0 CFG=2
M  V30 20 C 9.018120 2.011724 -18.254927 0 CFG=2
M  V30 21 O 6.313335 1.551680 -17.604804 0
M  V30 22 C 15.926221 6.434427 -18.839413 0 CFG=1
M  V30 23 C 17.022158 3.726287 -20.280738 0
M  V30 24 C 14.032931 4.114176 -17.332852 0
M  V30 25 S 7.221352 0.169554 -12.892726 0
M  V30 26 C 13.293149 1.206689 -17.549132 0
M  V30 27 C 14.907498 2.893891 -19.561623 0 CFG=2
M  V30 28 C 16.824276 6.325216 -20.077535 0
M  V30 29 C 14.976629 3.103433 -18.019235 0 CFG=2
M  V30 30 C 15.578713 7.918983 -18.577105 0
M  V30 31 C 14.734002 1.726181 -17.355638 0
M  V30 32 C 17.706484 5.076736 -20.067065 0
M  V30 33 O 7.608741 4.818984 -17.388392 0
M  V30 34 C 8.145780 6.022298 -13.550620 0
M  V30 35 C 7.254895 0.153512 -14.701316 0
M  V30 36 O 13.036550 -0.026694 -20.084867 0
M  V30 37 N 7.675990 2.577329 -14.526447 0
M  V30 38 C 6.892409 1.553059 -15.225946 0 CFG=1
M  V30 39 C 7.178663 1.615300 -16.732530 0
M  V30 40 O 7.731985 4.728081 -19.667181 0
M  V30 41 S 13.877563 7.832351 -18.976212 0
M  V30 42 O 6.012788 3.965648 -13.888088 0
M  V30 43 H 6.130667 5.839025 -16.377587 0
M  V30 44 H 6.795805 6.679965 -17.782999 0
M  V30 45 H 5.687133 5.318802 -18.005909 0
M  V30 46 H 5.434857 0.537982 -11.449289 0
M  V30 47 H 5.017359 1.096857 -13.091820 0
M  V30 48 H 4.944259 -0.630670 -12.682071 0
M  V30 49 H 9.551650 4.573966 -11.570573 0
M  V30 50 H 7.872874 4.169559 -11.204336 0
M  V30 51 H 8.938893 2.967610 -11.960480 0
M  V30 52 H 10.246078 5.364562 -13.866944 0
M  V30 53 H 9.141096 5.051068 -15.292769 0
M  V30 54 H 9.916608 3.841987 -17.478235 0
M  V30 55 H 10.018840 3.705998 -19.217603 0
M  V30 56 H 13.102195 5.982279 -17.147962 0
M  V30 57 H 12.852803 3.594210 -19.826359 0
M  V30 58 H 13.463650 2.623358 -21.149820 0
M  V30 59 H 14.078742 5.617937 -19.882262 0
M  V30 60 H 8.305155 1.739457 -19.034111 0
M  V30 61 H 16.374955 5.987641 -17.951406 0
M  V30 62 H 17.345747 3.298049 -21.229029 0
M  V30 63 H 17.349173 3.047620 -19.493456 0
M  V30 64 H 13.534509 3.756782 -16.443066 0
M  V30 65 H 12.597152 1.797292 -16.955886 0
M  V30 66 H 13.215702 0.186967 -17.171465 0
M  V30 67 H 15.404121 1.952626 -19.808648 0
M  V30 68 H 16.223627 6.316322 -20.987453 0
M  V30 69 H 17.482170 7.191768 -20.155713 0
M  V30 70 H 15.983513 3.417616 -17.756610 0
M  V30 71 H 14.947907 1.784222 -16.287222 0
M  V30 72 H 15.435623 0.990224 -17.749426 0
M  V30 73 H 7.330959 6.382262 -14.176421 0
M  V30 74 H 8.432199 6.691933 -12.741594 0
M  V30 75 H 6.563405 -0.603847 -15.074472 0
M  V30 76 H 8.257390 -0.141976 -15.013082 0
M  V30 77 H 8.666554 2.407858 -14.462357 0
M  V30 78 H 5.836701 1.710177 -15.040238 0
M  V30 END ATOM
M  V30 BEGIN BOND
M  V30 1 1 7 11 CFG=1
M  V30 2 1 13 10
M  V30 3 2 15 1
M  V30 4 1 15 11
M  V30 5 1 17 7
M  V30 6 1 18 4
M  V30 7 1 18 6
M  V30 8 1 18 9
M  V30 9 1 19 12
M  V30 10 1 20 10
M  V30 11 1 20 14
M  V30 12 1 20 15
M  V30 13 1 22 19
M  V30 14 1 23 16
M  V30 15 2 24 12
M  V30 16 1 25 3
M  V30 17 1 26 7
M  V30 18 1 27 16
M  V30 19 1 27 17
M  V30 20 1 28 22
M  V30 21 1 29 24
M  V30 22 1 29 27
M  V30 23 2 30 8
M  V30 24 1 30 22
M  V30 25 1 31 26
M  V30 26 1 31 29
M  V30 27 2 32 5
M  V30 28 1 32 23
M  V30 29 1 32 28
M  V30 30 1 33 2
M  V30 31 1 33 13
M  V30 32 1 34 6
M  V30 33 1 34 18
M  V30 34 1 35 25
M  V30 35 2 36 7
M  V30 36 1 37 9
M  V30 37 1 38 35
M  V30 38 1 38 37
M  V30 39 1 39 14
M  V30 40 2 39 21
M  V30 41 1 39 38
M  V30 42 2 40 13
M  V30 43 1 41 19
M  V30 44 1 41 30
M  V30 45 2 42 9
M  V30 46 1 43 2
M  V30 47 1 44 2
M  V30 48 1 45 2
M  V30 49 1 46 3
M  V30 50 1 47 3
M  V30 51 1 48 3
M  V30 52 1 49 4
M  V30 53 1 50 4
M  V30 54 1 51 4
M  V30 55 1 52 6
M  V30 56 1 53 6
M  V30 57 1 54 10
M  V30 58 1 55 10
M  V30 59 1 56 12
M  V30 60 1 57 17
M  V30 61 1 58 17
M  V30 62 1 19 59 CFG=3
M  V30 63 1 20 60 CFG=3
M  V30 64 1 22 61 CFG=1
M  V30 65 1 62 23
M  V30 66 1 63 23
M  V30 67 1 64 24
M  V30 68 1 65 26
M  V30 69 1 66 26
M  V30 70 1 27 67 CFG=1
M  V30 71 1 68 28
M  V30 72 1 69 28
M  V30 73 1 29 70 CFG=3
M  V30 74 1 71 31
M  V30 75 1 72 31
M  V30 76 1 73 34
M  V30 77 1 74 34
M  V30 78 1 75 35
M  V30 79 1 76 35
M  V30 80 1 77 37
M  V30 81 1 38 78 CFG=3
M  V30 END BOND
M  V30 END CTAB
M  END
>  <i_epik_Tot_Q>  (1) 
0

>  <i_epik_Tot_abs_Q>  (1) 
0

>  <i_i_glide_confnum>  (1) 
229

>  <i_i_glide_lignum>  (1) 
173

>  <i_i_glide_posenum>  (1) 
38

>  <i_i_glide_rotatable_bonds>  (1) 
14

>  <i_lp_mmshare_version>  (1) 
72125

>  <i_m_source_file_index>  (1) 
85

>  <i_f3d_flags>  (1) 
0

>  <num_sample>  (1) 
100

>  <b_lp_Chiralities_Consistent>  (1) 
1

>  <r_epik_Charging_Adjusted_Penalty>  (1) 
0

>  <r_epik_Ionization_Penalty>  (1) 
7.2332005044410275e-08

>  <r_epik_Ionization_Penalty_Charging>  (1) 
0

>  <r_epik_Ionization_Penalty_Neutral>  (1) 
7.2332005044410275e-08

>  <r_epik_State_Penalty>  (1) 
-0

>  <r_glide_ring_energy>  (1) 
0

>  <r_i_docking_score>  (1) 
-3.2206201847316343

>  <r_i_glide_ecoul>  (1) 
-0.26726359395732102

>  <r_i_glide_eff_state_penalty>  (1) 
-0

>  <r_i_glide_einternal>  (1) 
9.6860116505956722

>  <r_i_glide_emodel>  (1) 
-36.474459956914238

>  <r_i_glide_emodel_strain>  (1) 
0.51487516669535438

>  <r_i_glide_energy>  (1) 
-35.718342251011514

>  <r_i_glide_erotb>  (1) 
0.4114608192218252

>  <r_i_glide_esite>  (1) 
0

>  <r_i_glide_evdw>  (1) 
-35.45107865705419

>  <r_i_glide_gscore>  (1) 
-3.2206201847316343

>  <r_i_glide_gscore_strain>  (1) 
0

>  <r_i_glide_hbond>  (1) 
0

>  <r_i_glide_ligand_efficiency>  (1) 
-0.076681432969800817

>  <r_i_glide_ligand_efficiency_ln>  (1) 
-0.67978994826966921

>  <r_i_glide_ligand_efficiency_sa>  (1) 
-0.26654670417110199

>  <r_i_glide_lipo>  (1) 
-1.0990341830188575

>  <r_i_glide_metal>  (1) 
-0

>  <r_i_glide_rewards>  (1) 
-0.72040334898829406

>  <r_lp_Energy>  (1) 
16.435652999999999

>  <r_lp_tautomer_probability>  (1) 
1

>  <s_epik_Chemistry_Notes>  (1) 
This compound has an ester and may undergo hydrolysis at high or low pH.

>  <s_epik_cmdline>  (1) 
J2VwaWtfcHl0aG9uJywgJy1waHQnLCAnMS4wJywgJy1waCcsICc3LjQnLCAnLXRuJywgJzgnLCAnLW1hJywgJzUwMCcsICctaW1hZScsICc8aW5maWxlLm1hZT4nLCAnLW9tYWUnLCAnPG91dGZpbGUubWFlPic=

>  <s_epik_input>  (1) 
W0NIMl0xW0NIMl1DMShbQ0gzXSlDKD1PKVtOSF1bQ0BIXShbQ0gyXVNbQ0gzXSlDKD1PKU9bQ0BASF0oW0NIMl1DKD1PKU9bQ0gzXSlDKD1PKU9QKD1PKShbQ0gyXTIpW0NIMl1bQ0gyXVtDQEhdKC9bQ0hdPVtDSF1cMylbQ0BASF0yT1tDSDJdQyg9TylbQ0gyXVtDQEhdKFtDQEBIXTM0KUMoPU8pUzQ=

>  <s_glide_docking_method>  (1) 
confgen

>  <s_i_glide_gridfile>  (1) 
gpcr_drd2_6luq_protein_autoprepared_prepared

>  <s_lp_Force_Field>  (1) 
S-OPLS

>  <s_lp_Variant>  (1) 
DiffSBDD_84_num_sample_100-1

>  <s_m_source_file>  (1) 
generated__ligand_DiffSBDD_2026-05-06_prepared.sdf

>  <GenAI_Model>  (1) 
DiffSBDD

>  <Protein>  (1) 
generic_title2

$$$$
DiffSBDD_80_num_sample_100
     RDKit          3D

  0  0  0  0  0  0  0  0  0  0999 V3000
M  V30 BEGIN CTAB
M  V30 COUNTS 57 60 0 0 1
M  V30 BEGIN ATOM
M  V30 1 C 4.536560 -0.790833 -16.693267 0
M  V30 2 C 7.924116 1.166428 -18.723657 0
M  V30 3 O 7.125641 -3.878242 -18.507616 0
M  V30 4 C 6.249458 3.730745 -21.173348 0
M  V30 5 C 5.929153 -3.820543 -18.789080 0
M  V30 6 C 7.298649 3.646944 -18.494475 0
M  V30 7 C 4.979495 -2.855328 -18.071726 0
M  V30 8 C 5.326110 -4.711570 -19.867140 0
M  V30 9 C 8.172968 -0.170645 -16.814393 0
M  V30 10 C 6.491355 -0.744734 -18.447755 0 CFG=2
M  V30 11 C 7.083132 4.972876 -19.195377 0 CFG=1
M  V30 12 O 3.686635 9.460224 -21.311339 0 CHG=-1
M  V30 13 C 5.802073 6.113904 -20.947883 0
M  V30 14 C 5.627450 -0.170074 -19.584090 0
M  V30 15 C 6.355670 4.888646 -20.501814 0
M  V30 16 C 4.683182 7.688112 -22.587949 0
M  V30 17 C 6.734430 2.464661 -20.617441 0
M  V30 18 F 3.405162 7.483107 -22.903776 0
M  V30 19 C 7.252310 2.408671 -19.336318 0
M  V30 20 C 5.003566 0.104220 -15.535514 0
M  V30 21 C 5.275022 6.336323 -22.165676 0
M  V30 22 C 5.833010 7.115810 -19.966329 0
M  V30 23 C 5.634434 -1.597963 -17.440501 0 CFG=1
M  V30 24 O 7.543997 3.631849 -17.288546 0
M  V30 25 S 6.477948 6.569287 -18.394025 0
M  V30 26 N 7.187528 0.355922 -17.763946 0
M  V30 27 F 5.281736 8.078623 -23.714085 0
M  V30 28 C 6.647502 1.261551 -21.441366 0
M  V30 29 C 6.234826 0.059889 -20.972899 0
M  V30 30 C 5.394393 8.375364 -20.186190 0
M  V30 31 C 4.837202 8.871537 -21.531196 0 CFG=2
M  V30 32 H 3.935820 -0.230701 -17.404578 0
M  V30 33 H 3.834923 -1.476931 -16.234751 0
M  V30 34 H 8.349432 0.535688 -19.504800 0
M  V30 35 H 8.814386 1.571648 -18.239116 0
M  V30 36 H 5.736381 3.712042 -22.120542 0
M  V30 37 H 4.179582 -2.574135 -18.755817 0
M  V30 38 H 4.497778 -3.430620 -17.279894 0
M  V30 39 H 4.449365 -5.231960 -19.481852 0
M  V30 40 H 6.050985 -5.453980 -20.200743 0
M  V30 41 H 5.023577 -4.112197 -20.725895 0
M  V30 42 H 7.712387 -0.697637 -15.982295 0
M  V30 43 H 8.734366 0.643671 -16.354733 0
M  V30 44 H 8.881852 -0.844749 -17.298127 0
M  V30 45 H 7.247644 -1.387979 -18.897886 0
M  V30 46 H 8.098412 5.233728 -19.494989 0
M  V30 47 H 4.797060 -0.840955 -19.791805 0
M  V30 48 H 5.123172 0.736989 -19.247142 0
M  V30 49 H 4.145800 0.479383 -14.977158 0
M  V30 50 H 5.567267 0.969199 -15.879392 0
M  V30 51 H 5.624694 -0.452905 -14.833485 0
M  V30 52 H 5.256157 5.552621 -22.904496 0
M  V30 53 H 6.295802 -2.020363 -16.691661 0
M  V30 54 H 6.940024 1.331498 -22.478750 0
M  V30 55 H 6.219036 -0.787516 -21.642200 0
M  V30 56 H 5.434811 9.099724 -19.386565 0
M  V30 57 H 5.679610 9.464989 -21.888282 0
M  V30 END ATOM
M  V30 BEGIN BOND
M  V30 1 2 5 3
M  V30 2 1 7 5
M  V30 3 1 8 5
M  V30 4 1 11 6
M  V30 5 1 14 10
M  V30 6 2 15 4
M  V30 7 1 15 11
M  V30 8 1 15 13
M  V30 9 1 17 4
M  V30 10 1 18 16
M  V30 11 1 19 2
M  V30 12 1 19 6
M  V30 13 2 19 17
M  V30 14 1 20 1
M  V30 15 2 21 13
M  V30 16 1 21 16
M  V30 17 1 22 13
M  V30 18 1 23 1
M  V30 19 1 23 7
M  V30 20 1 23 10
M  V30 21 2 24 6
M  V30 22 1 25 11
M  V30 23 1 25 22
M  V30 24 1 26 2
M  V30 25 1 26 9
M  V30 26 1 26 10
M  V30 27 1 27 16
M  V30 28 1 28 17
M  V30 29 1 29 14
M  V30 30 2 29 28
M  V30 31 2 30 22
M  V30 32 1 31 12
M  V30 33 1 31 16
M  V30 34 1 31 30
M  V30 35 1 32 1
M  V30 36 1 33 1
M  V30 37 1 34 2
M  V30 38 1 35 2
M  V30 39 1 36 4
M  V30 40 1 37 7
M  V30 41 1 38 7
M  V30 42 1 39 8
M  V30 43 1 40 8
M  V30 44 1 41 8
M  V30 45 1 42 9
M  V30 46 1 43 9
M  V30 47 1 44 9
M  V30 48 1 10 45 CFG=3
M  V30 49 1 11 46 CFG=3
M  V30 50 1 47 14
M  V30 51 1 48 14
M  V30 52 1 49 20
M  V30 53 1 50 20
M  V30 54 1 51 20
M  V30 55 1 52 21
M  V30 56 1 23 53 CFG=1
M  V30 57 1 54 28
M  V30 58 1 55 29
M  V30 59 1 56 30
M  V30 60 1 31 57 CFG=3
M  V30 END BOND
M  V30 END CTAB
M  END
>  <i_epik_Tot_Q>  (1) 
-1

>  <i_epik_Tot_abs_Q>  (1) 
1

>  <i_i_glide_confnum>  (1) 
4

>  <i_i_glide_lignum>  (1) 
164

>  <i_i_glide_posenum>  (1) 
21

>  <i_i_glide_rotatable_bonds>  (1) 
4

>  <i_lp_mmshare_version>  (1) 
72125

>  <i_m_source_file_index>  (1) 
81

>  <i_f3d_flags>  (1) 
0

>  <num_sample>  (1) 
100

>  <b_lp_Chiralities_Consistent>  (1) 
1

>  <r_epik_Charging_Adjusted_Penalty>  (1) 
8.7803366933407872e-06

>  <r_epik_Ionization_Penalty>  (1) 
0.00048743314384941063

>  <r_epik_Ionization_Penalty_Charging>  (1) 
8.7803366933407872e-06

>  <r_epik_Ionization_Penalty_Neutral>  (1) 
0.00047865280715606983

>  <r_epik_State_Penalty>  (1) 
-0

>  <r_glide_ring_energy>  (1) 
0

>  <r_i_docking_score>  (1) 
-3.2190371904134039

>  <r_i_glide_ecoul>  (1) 
-1.4393070283943579

>  <r_i_glide_eff_state_penalty>  (1) 
-0

>  <r_i_glide_einternal>  (1) 
5.9236670579293671

>  <r_i_glide_emodel>  (1) 
-31.299954382398312

>  <r_i_glide_emodel_strain>  (1) 
0

>  <r_i_glide_energy>  (1) 
-30.56470145112452

>  <r_i_glide_erotb>  (1) 
0.20077648214602295

>  <r_i_glide_esite>  (1) 
-0.010930780562374669

>  <r_i_glide_evdw>  (1) 
-29.125394422730164

>  <r_i_glide_gscore>  (1) 
-3.2190371904134039

>  <r_i_glide_gscore_strain>  (1) 
0

>  <r_i_glide_hbond>  (1) 
0

>  <r_i_glide_ligand_efficiency>  (1) 
-0.10383990936817432

>  <r_i_glide_ligand_efficiency_ln>  (1) 
-0.72599153808049455

>  <r_i_glide_ligand_efficiency_sa>  (1) 
-0.32620068223525861

>  <r_i_glide_lipo>  (1) 
-1.2545136712318812

>  <r_i_glide_metal>  (1) 
-0

>  <r_i_glide_rewards>  (1) 
-0.48220344536950871

>  <r_lp_Energy>  (1) 
51.588003999999998

>  <r_lp_tautomer_probability>  (1) 
1

>  <s_epik_cmdline>  (1) 
J2VwaWtfcHl0aG9uJywgJy1waHQnLCAnMS4wJywgJy1waCcsICc3LjQnLCAnLXRuJywgJzgnLCAnLW1hJywgJzUwMCcsICctaW1hZScsICc8aW5maWxlLm1hZT4nLCAnLW9tYWUnLCAnPG91dGZpbGUubWFlPic=

>  <s_epik_input>  (1) 
Tz1DKFtDSDNdKVtDSDJdW0NAQEhdKFtDSDJdW0NIM10pW0NAQEhdKFtDSDJdL1tDSF09W0NIXVwxKU4oW0NIM10pW0NIMl1DKEMyPU8pPUMxW0NIXT1DKFtDQEhdMjMpQz00QyhTMyk9W0NIXVtDQEhdKFtPSF0pQyhGKShGKVtDSF00

>  <s_glide_docking_method>  (1) 
confgen

>  <s_i_glide_gridfile>  (1) 
gpcr_drd2_6luq_protein_autoprepared_prepared

>  <s_lp_Force_Field>  (1) 
S-OPLS

>  <s_lp_Variant>  (1) 
DiffSBDD_80_num_sample_100-3

>  <s_m_source_file>  (1) 
generated__ligand_DiffSBDD_2026-05-06_prepared.sdf

>  <GenAI_Model>  (1) 
DiffSBDD

>  <Protein>  (1) 
generic_title2

$$$$
DiffSBDD_36_num_sample_100
     RDKit          3D

  0  0  0  0  0  0  0  0  0  0999 V3000
M  V30 BEGIN CTAB
M  V30 COUNTS 102 107 0 0 1
M  V30 BEGIN ATOM
M  V30 1 C 6.055052 -0.470354 -19.557478 0
M  V30 2 O 10.933887 5.769306 -14.691091 0
M  V30 3 C 7.135462 1.246892 -13.214575 0
M  V30 4 C 3.756120 5.387779 -22.597110 0
M  V30 5 C 9.354033 6.706737 -19.396712 0 CFG=1
M  V30 6 O 6.864421 7.424573 -22.114899 0
M  V30 7 C 8.727597 4.177035 -12.972025 0
M  V30 8 C 7.085807 0.807320 -16.112231 0
M  V30 9 C 8.130322 1.759591 -15.514354 0 CFG=1
M  V30 10 C 6.481726 -0.139108 -15.153058 0 CFG=1
M  V30 11 C 12.401556 7.376267 -13.791841 0
M  V30 12 C 7.845176 4.138310 -15.416818 0
M  V30 13 C 7.137620 -0.160990 -13.782908 0
M  V30 14 C 5.832432 -0.125526 -18.101558 0
M  V30 15 S 9.096231 5.219411 -21.675142 0
M  V30 16 C 4.690606 -0.592961 -17.494966 0
M  V30 17 C 14.041493 6.174069 -17.473353 0
M  V30 18 C 4.237659 -0.313566 -16.130746 0
M  V30 19 C 6.350694 5.198005 -21.284242 0
M  V30 20 C 12.187392 6.361461 -14.921685 0 CFG=2
M  V30 21 O 7.396851 5.683740 -18.188011 0
M  V30 22 C 4.557895 7.079066 -18.089940 0
M  V30 23 C 9.861199 6.510371 -20.805375 0
M  V30 24 C 4.653313 6.590151 -22.731704 0
M  V30 25 C 6.884872 6.617122 -17.241140 0
M  V30 26 C 8.459656 3.046394 -16.266497 0
M  V30 27 O 14.913782 5.386825 -16.652065 0
M  V30 28 C 3.183452 7.440386 -17.556619 0
M  V30 29 C 7.661710 3.640200 -13.968078 0 CFG=2
M  V30 30 C 6.261822 4.042272 -13.435420 0
M  V30 31 S 4.215999 7.970315 -23.559576 0
M  V30 32 O 12.232916 6.969291 -16.164645 0
M  V30 33 C 5.399152 6.432714 -16.990942 0
M  V30 34 C 11.730188 6.443477 -18.446891 0
M  V30 35 C 10.801478 7.282381 -21.377145 0
M  V30 36 N 7.873078 2.172266 -14.099388 0 CFG=1 CHG=1
M  V30 37 C 10.568979 5.974015 -13.309786 0 CFG=1
M  V30 38 C 7.874778 6.219809 -19.421641 0 CFG=2
M  V30 39 C 6.045556 6.504713 -22.050771 0
M  V30 40 O 14.690507 5.054599 -18.089541 0
M  V30 41 C 10.256055 5.990479 -18.369312 0
M  V30 42 O 8.242764 6.546211 -13.005301 0
M  V30 43 C 7.696022 5.135588 -20.527074 0 CFG=2
M  V30 44 C 5.024625 -0.063774 -15.101137 0
M  V30 45 C 6.816899 0.764622 -17.435934 0
M  V30 46 C 12.550397 6.063056 -17.214823 0 CFG=1
M  V30 47 C 11.147180 7.311009 -12.909960 0
M  V30 48 C 9.092922 5.659508 -13.084736 0
M  V30 49 H 7.087977 -0.282942 -19.853390 0
M  V30 50 H 5.833035 -1.522724 -19.737687 0
M  V30 51 H 5.396985 0.127411 -20.190645 0
M  V30 52 H 6.116351 1.564829 -12.994471 0
M  V30 53 H 7.688265 1.222499 -12.290662 0
M  V30 54 H 3.497310 5.224172 -21.550340 0
M  V30 55 H 2.834676 5.544003 -23.159262 0
M  V30 56 H 9.377286 7.769060 -19.179822 0
M  V30 57 H 9.663883 3.632224 -13.094422 0
M  V30 58 H 9.032447 1.155805 -15.503804 0
M  V30 59 H 6.683132 -1.094714 -15.611934 0
M  V30 60 H 13.268139 7.066793 -13.214526 0
M  V30 61 H 12.634770 8.361515 -14.191167 0
M  V30 62 H 6.868019 4.365749 -15.833855 0
M  V30 63 H 8.477591 5.014239 -15.505219 0
M  V30 64 H 6.634549 -0.849305 -13.107030 0
M  V30 65 H 8.154936 -0.532892 -13.893887 0
M  V30 66 H 4.019704 -1.172629 -18.112256 0
M  V30 67 H 14.432311 7.152323 -17.752751 0
M  V30 68 H 3.183436 -0.314668 -15.947135 0
M  V30 69 H 6.316969 4.370174 -21.994345 0
M  V30 70 H 5.548339 5.023739 -20.568693 0
M  V30 71 H 13.025848 5.667834 -14.889384 0
M  V30 72 H 5.027585 7.993053 -18.454828 0
M  V30 73 H 4.476322 6.408028 -18.945633 0
M  V30 74 H 7.412031 6.538801 -16.300417 0
M  V30 75 H 7.034831 7.649439 -17.491047 0
M  V30 76 H 8.111769 3.122579 -17.292351 0
M  V30 77 H 9.539538 3.191964 -16.303633 0
M  V30 78 H 2.635322 7.981705 -18.319235 0
M  V30 79 H 2.637102 6.547530 -17.262209 0
M  V30 80 H 3.244866 8.097144 -16.688121 0
M  V30 81 H 6.062732 5.100754 -13.613777 0
M  V30 82 H 5.452982 3.484081 -13.894455 0
M  V30 83 H 6.182683 3.885295 -12.357916 0
M  V30 84 H 4.251311 4.500100 -22.991165 0
M  V30 85 H 5.152302 5.379923 -16.882523 0
M  V30 86 H 5.169018 6.906794 -16.034375 0
M  V30 87 H 12.184086 5.985276 -19.326511 0
M  V30 88 H 11.806316 7.521922 -18.597205 0
M  V30 89 H 11.258900 8.095163 -20.833577 0
M  V30 90 H 11.122498 7.108765 -22.393194 0
M  V30 91 H 11.035150 5.288893 -12.629939 0
M  V30 92 H 7.255479 7.079665 -19.675363 0
M  V30 93 H 9.875044 6.167216 -17.365673 0
M  V30 94 H 10.202668 4.911560 -18.520343 0
M  V30 95 H 8.430317 3.977546 -11.942875 0
M  V30 96 H 7.766968 4.156508 -20.052023 0
M  V30 97 H 4.581434 0.138499 -14.139124 0
M  V30 98 H 7.377300 1.422875 -18.074555 0
M  V30 99 H 12.312555 5.027023 -16.957814 0
M  V30 100 H 10.446921 8.122782 -13.091148 0
M  V30 101 H 11.396267 7.338840 -11.847471 0
M  V30 102 H 8.807254 2.080381 -13.725428 0
M  V30 END ATOM
M  V30 BEGIN BOND
M  V30 1 1 9 8
M  V30 2 1 10 8
M  V30 3 1 13 3
M  V30 4 1 13 10
M  V30 5 1 14 1
M  V30 6 2 16 14
M  V30 7 1 18 16
M  V30 8 1 20 2
M  V30 9 1 20 11
M  V30 10 1 23 5
M  V30 11 1 23 15
M  V30 12 1 24 4
M  V30 13 1 25 21
M  V30 14 1 26 9
M  V30 15 1 26 12
M  V30 16 1 27 17
M  V30 17 1 28 22
M  V30 18 1 29 7 CFG=1
M  V30 19 1 29 12
M  V30 20 1 30 29
M  V30 21 2 31 24
M  V30 22 1 32 20
M  V30 23 1 33 22
M  V30 24 1 33 25
M  V30 25 2 35 23
M  V30 26 1 36 3
M  V30 27 1 36 9
M  V30 28 1 36 29
M  V30 29 1 37 2
M  V30 30 1 38 5
M  V30 31 1 38 21
M  V30 32 2 39 6
M  V30 33 1 39 19
M  V30 34 1 39 24
M  V30 35 1 40 17
M  V30 36 1 40 27
M  V30 37 1 41 5
M  V30 38 1 41 34
M  V30 39 1 43 15
M  V30 40 1 43 19
M  V30 41 1 43 38
M  V30 42 1 44 10
M  V30 43 2 44 18
M  V30 44 2 45 8
M  V30 45 1 45 14
M  V30 46 1 46 17
M  V30 47 1 46 32
M  V30 48 1 46 34
M  V30 49 1 47 11
M  V30 50 1 47 37
M  V30 51 1 48 7
M  V30 52 1 48 37
M  V30 53 2 48 42
M  V30 54 1 49 1
M  V30 55 1 50 1
M  V30 56 1 51 1
M  V30 57 1 52 3
M  V30 58 1 53 3
M  V30 59 1 54 4
M  V30 60 1 55 4
M  V30 61 1 5 56 CFG=1
M  V30 62 1 57 7
M  V30 63 1 9 58 CFG=1
M  V30 64 1 10 59 CFG=3
M  V30 65 1 60 11
M  V30 66 1 61 11
M  V30 67 1 62 12
M  V30 68 1 63 12
M  V30 69 1 64 13
M  V30 70 1 65 13
M  V30 71 1 66 16
M  V30 72 1 67 17
M  V30 73 1 68 18
M  V30 74 1 69 19
M  V30 75 1 70 19
M  V30 76 1 20 71 CFG=3
M  V30 77 1 72 22
M  V30 78 1 73 22
M  V30 79 1 74 25
M  V30 80 1 75 25
M  V30 81 1 76 26
M  V30 82 1 77 26
M  V30 83 1 78 28
M  V30 84 1 79 28
M  V30 85 1 80 28
M  V30 86 1 81 30
M  V30 87 1 82 30
M  V30 88 1 83 30
M  V30 89 1 84 4
M  V30 90 1 85 33
M  V30 91 1 86 33
M  V30 92 1 87 34
M  V30 93 1 88 34
M  V30 94 1 89 35
M  V30 95 1 90 35
M  V30 96 1 37 91 CFG=1
M  V30 97 1 38 92 CFG=3
M  V30 98 1 93 41
M  V30 99 1 94 41
M  V30 100 1 95 7
M  V30 101 1 43 96 CFG=1
M  V30 102 1 97 44
M  V30 103 1 98 45
M  V30 104 1 46 99 CFG=1
M  V30 105 1 100 47
M  V30 106 1 101 47
M  V30 107 1 36 102 CFG=1
M  V30 END BOND
M  V30 END CTAB
M  END
>  <i_epik_Tot_Q>  (1) 
1

>  <i_epik_Tot_abs_Q>  (1) 
1

>  <i_i_glide_confnum>  (1) 
4732

>  <i_i_glide_lignum>  (1) 
65

>  <i_i_glide_posenum>  (1) 
319

>  <i_i_glide_rotatable_bonds>  (1) 
16

>  <i_lp_mmshare_version>  (1) 
72125

>  <i_m_source_file_index>  (1) 
37

>  <i_f3d_flags>  (1) 
0

>  <num_sample>  (1) 
100

>  <b_lp_Chiralities_Consistent>  (1) 
1

>  <r_epik_Charging_Adjusted_Penalty>  (1) 
0.91210119875661555

>  <r_epik_Ionization_Penalty>  (1) 
0.45605060116919061

>  <r_epik_Ionization_Penalty_Charging>  (1) 
0.45605059937830777

>  <r_epik_Ionization_Penalty_Neutral>  (1) 
1.7908828364046034e-09

>  <r_epik_State_Penalty>  (1) 
0.45605059937830777

>  <r_glide_ring_energy>  (1) 
0.90833713593568233

>  <r_i_docking_score>  (1) 
-3.2144639409321303

>  <r_i_glide_ecoul>  (1) 
-1.2663592506802792

>  <r_i_glide_eff_state_penalty>  (1) 
0.45605059937830777

>  <r_i_glide_einternal>  (1) 
19.685485920577257

>  <r_i_glide_emodel>  (1) 
-0.14698435322288361

>  <r_i_glide_emodel_strain>  (1) 
4.7126906536045112

>  <r_i_glide_energy>  (1) 
-5.2215047604706184

>  <r_i_glide_erotb>  (1) 
0.43548923687221863

>  <r_i_glide_esite>  (1) 
-0.0061362895323407362

>  <r_i_glide_evdw>  (1) 
-3.9551455097903392

>  <r_i_glide_gscore>  (1) 
-3.670514540310438

>  <r_i_glide_gscore_strain>  (1) 
0.17817266340112781

>  <r_i_glide_hbond>  (1) 
0

>  <r_i_glide_ligand_efficiency>  (1) 
-0.066967998769419376

>  <r_i_glide_ligand_efficiency_ln>  (1) 
-0.65989145874582189

>  <r_i_glide_ligand_efficiency_sa>  (1) 
-0.24337785924933872

>  <r_i_glide_lipo>  (1) 
-3.0908085601780124

>  <r_i_glide_metal>  (1) 
-0

>  <r_i_glide_rewards>  (1) 
-0.79952042778187227

>  <r_lp_Energy>  (1) 
28.938099999999999

>  <r_lp_tautomer_probability>  (1) 
0.99994996000200076

>  <s_epik_Chemistry_Notes>  (1) 
This compound contains an acetal/aminal-like group ( X-CH(R)-Y where X, Y are N, S, or O) that may be acid/base labile, releasing an aldehyde.

>  <s_epik_cmdline>  (1) 
J2VwaWtfcHl0aG9uJywgJy1waHQnLCAnMS4wJywgJy1waCcsICc3LjQnLCAnLXRuJywgJzgnLCAnLW1hJywgJzUwMCcsICctaW1hZScsICc8aW5maWxlLm1hZT4nLCAnLW9tYWUnLCAnPG91dGZpbGUubWFlPic=

>  <s_epik_input>  (1) 
W0NIM11DKFtDSF0xKT1bQ0hdW0NIXT1bQ0hdW0NAQEhdMltDSDJdW0NIMl1OKFtDQEhdM0M9MTIpW0NAXShbQ0gzXSkoW0NIMl1bQ0gyXTMpL1tDSF09QyhbT0hdKS9bQ0BIXShbQ0gyXVtDSDJdNClPW0NASF00T1tDQEhdKFtDSF01T081KVtDSDJdW0NIMl1bQ0BIXTZDKD1bQ0gyXSlTW0NASF0oW0NIMl1DKD1PKUMoPVtDSDJdKVtTSF0pW0NASF02T1tDSDJdW0NIMl1bQ0gyXVtDSDNd

>  <s_glide_docking_method>  (1) 
confgen

>  <s_i_glide_gridfile>  (1) 
gpcr_drd2_6luq_protein_autoprepared_prepared

>  <s_lp_Force_Field>  (1) 
S-OPLS

>  <s_lp_Variant>  (1) 
DiffSBDD_36_num_sample_100-2

>  <s_m_source_file>  (1) 
generated__ligand_DiffSBDD_2026-05-06_prepared.sdf

>  <GenAI_Model>  (1) 
DiffSBDD

>  <Protein>  (1) 
generic_title2

$$$$
DiffSBDD_45_num_sample_100
     RDKit          3D

  0  0  0  0  0  0  0  0  0  0999 V3000
M  V30 BEGIN CTAB
M  V30 COUNTS 63 65 0 0 1
M  V30 BEGIN ATOM
M  V30 1 C 5.190994 -3.137785 -19.017494 0
M  V30 2 C 11.863564 3.479991 -18.798450 0
M  V30 3 C 5.109810 -2.883441 -17.502760 0
M  V30 4 C 14.520779 4.713773 -16.251572 0 CFG=2
M  V30 5 C 13.302553 3.922450 -16.800661 0 CFG=1
M  V30 6 C 13.034464 6.703082 -15.826122 0
M  V30 7 C 6.211787 1.750861 -20.267296 0
M  V30 8 C 5.699362 -0.686775 -19.509644 0 CFG=1
M  V30 9 O 5.059348 2.024619 -19.925534 0
M  V30 10 N 12.729063 4.427748 -18.072263 0
M  V30 11 Cl 13.916024 2.265742 -17.105499 0
M  V30 12 C 9.371140 1.921227 -20.110293 0 CFG=1
M  V30 13 C 8.557772 1.617371 -22.586296 0
M  V30 14 C 5.035675 -1.403977 -17.172949 0
M  V30 15 C 9.352995 2.906620 -18.911823 0
M  V30 16 N 14.233905 5.937723 -15.491877 0
M  V30 17 C 9.125492 0.471612 -19.669706 0
M  V30 18 C 10.628309 2.928194 -18.045612 0
M  V30 19 C 5.294248 -0.428799 -18.060403 0
M  V30 20 C 12.029583 5.710508 -17.928235 0
M  V30 21 C 8.432089 2.386825 -21.252593 0 CFG=1
M  V30 22 C 6.760936 0.315016 -20.046863 0 CFG=2
M  V30 23 F 15.374067 5.005480 -17.234969 0
M  V30 24 O 7.834843 0.311093 -19.110946 0
M  V30 25 C 6.149775 -2.153137 -19.703985 0
M  V30 26 C 12.841394 6.868157 -17.338042 0
M  V30 27 N 7.032876 2.671965 -20.849772 0
M  V30 28 C 6.551598 4.037105 -21.098193 0
M  V30 29 H 4.197039 -3.034053 -19.454462 0
M  V30 30 H 5.502315 -4.165832 -19.203873 0
M  V30 31 H 12.449199 2.641577 -19.174325 0
M  V30 32 H 11.524786 3.970435 -19.711916 0
M  V30 33 H 5.984093 -3.299073 -17.002087 0
M  V30 34 H 4.238484 -3.393614 -17.092097 0
M  V30 35 H 15.085579 4.052075 -15.593835 0
M  V30 36 H 12.527443 3.831120 -16.041419 0
M  V30 37 H 13.110365 7.689909 -15.367872 0
M  V30 38 H 12.151121 6.240845 -15.382261 0
M  V30 39 H 4.787563 -0.558119 -20.095619 0
M  V30 40 H 10.376836 1.943751 -20.531663 0
M  V30 41 H 9.574922 1.691880 -22.972042 0
M  V30 42 H 8.333898 0.556699 -22.519605 0
M  V30 43 H 7.899455 2.044879 -23.343323 0
M  V30 44 H 4.760490 -1.147149 -16.159977 0
M  V30 45 H 9.187406 3.921985 -19.273779 0
M  V30 46 H 8.493411 2.690251 -18.276118 0
M  V30 47 H 14.282684 5.758594 -14.489931 0
M  V30 48 H 9.851636 0.193786 -18.905933 0
M  V30 49 H 9.280509 -0.230890 -20.489568 0
M  V30 50 H 10.416299 3.530909 -17.163481 0
M  V30 51 H 10.846330 1.932508 -17.658809 0
M  V30 52 H 5.220971 0.602850 -17.752813 0
M  V30 53 H 11.688107 6.031079 -18.913006 0
M  V30 54 H 11.124272 5.585369 -17.334334 0
M  V30 55 H 8.853901 3.359037 -21.512350 0
M  V30 56 H 7.065247 -0.089004 -21.007157 0
M  V30 57 H 6.218371 -2.384650 -20.767436 0
M  V30 58 H 7.150567 -2.289896 -19.291742 0
M  V30 59 H 13.788230 7.010142 -17.860170 0
M  V30 60 H 12.274319 7.784540 -17.504028 0
M  V30 61 H 5.491408 4.058178 -21.355335 0
M  V30 62 H 6.696569 4.652351 -20.209784 0
M  V30 63 H 7.072404 4.514396 -21.928791 0
M  V30 END ATOM
M  V30 BEGIN BOND
M  V30 1 1 3 1
M  V30 2 1 5 4
M  V30 3 2 9 7
M  V30 4 1 10 2
M  V30 5 1 10 5
M  V30 6 1 11 5
M  V30 7 1 14 3
M  V30 8 1 15 12
M  V30 9 1 16 4
M  V30 10 1 16 6
M  V30 11 1 17 12
M  V30 12 1 18 2
M  V30 13 1 18 15
M  V30 14 1 19 8
M  V30 15 2 19 14
M  V30 16 1 20 10
M  V30 17 1 21 12
M  V30 18 1 21 13
M  V30 19 1 22 7
M  V30 20 1 22 8
M  V30 21 1 23 4
M  V30 22 1 24 17
M  V30 23 1 24 22
M  V30 24 1 25 1
M  V30 25 1 25 8
M  V30 26 1 26 6
M  V30 27 1 26 20
M  V30 28 1 27 7
M  V30 29 1 27 21
M  V30 30 1 28 27
M  V30 31 1 29 1
M  V30 32 1 30 1
M  V30 33 1 31 2
M  V30 34 1 32 2
M  V30 35 1 33 3
M  V30 36 1 34 3
M  V30 37 1 4 35 CFG=1
M  V30 38 1 5 36 CFG=1
M  V30 39 1 37 6
M  V30 40 1 38 6
M  V30 41 1 8 39 CFG=3
M  V30 42 1 12 40 CFG=3
M  V30 43 1 41 13
M  V30 44 1 42 13
M  V30 45 1 43 13
M  V30 46 1 44 14
M  V30 47 1 45 15
M  V30 48 1 46 15
M  V30 49 1 47 16
M  V30 50 1 48 17
M  V30 51 1 49 17
M  V30 52 1 50 18
M  V30 53 1 51 18
M  V30 54 1 52 19
M  V30 55 1 53 20
M  V30 56 1 54 20
M  V30 57 1 21 55 CFG=3
M  V30 58 1 22 56 CFG=3
M  V30 59 1 57 25
M  V30 60 1 58 25
M  V30 61 1 59 26
M  V30 62 1 60 26
M  V30 63 1 61 28
M  V30 64 1 62 28
M  V30 65 1 63 28
M  V30 END BOND
M  V30 END CTAB
M  END
>  <i_epik_Tot_Q>  (1) 
0

>  <i_epik_Tot_abs_Q>  (1) 
0

>  <i_i_glide_confnum>  (1) 
180

>  <i_i_glide_lignum>  (1) 
83

>  <i_i_glide_posenum>  (1) 
267

>  <i_i_glide_rotatable_bonds>  (1) 
5

>  <i_lp_mmshare_version>  (1) 
72125

>  <i_m_source_file_index>  (1) 
46

>  <i_f3d_flags>  (1) 
0

>  <num_sample>  (1) 
100

>  <b_lp_Chiralities_Consistent>  (1) 
1

>  <r_epik_Charging_Adjusted_Penalty>  (1) 
0.015133208647659156

>  <r_epik_Ionization_Penalty>  (1) 
0.015206278080010002

>  <r_epik_Ionization_Penalty_Charging>  (1) 
0

>  <r_epik_Ionization_Penalty_Neutral>  (1) 
0.015206278080010002

>  <r_epik_State_Penalty>  (1) 
0.015133208647659156

>  <r_glide_ring_energy>  (1) 
0.62881631163641161

>  <r_i_docking_score>  (1) 
-3.210882944258914

>  <r_i_glide_ecoul>  (1) 
-3.6522271439779135

>  <r_i_glide_eff_state_penalty>  (1) 
0.015133208647659156

>  <r_i_glide_einternal>  (1) 
4.1885942493640869

>  <r_i_glide_emodel>  (1) 
-27.773977367801855

>  <r_i_glide_emodel_strain>  (1) 
0.59733308966130494

>  <r_i_glide_energy>  (1) 
-26.105062531530443

>  <r_i_glide_erotb>  (1) 
0.45657733151366331

>  <r_i_glide_esite>  (1) 
-0.0031607893872074551

>  <r_i_glide_evdw>  (1) 
-22.452835387552529

>  <r_i_glide_gscore>  (1) 
-3.2260161529065732

>  <r_i_glide_gscore_strain>  (1) 
0

>  <r_i_glide_hbond>  (1) 
-0.32000000000000001

>  <r_i_glide_ligand_efficiency>  (1) 
-0.11467439086638978

>  <r_i_glide_ligand_efficiency_ln>  (1) 
-0.74116605915473244

>  <r_i_glide_ligand_efficiency_sa>  (1) 
-0.34821899066143847

>  <r_i_glide_lipo>  (1) 
-1.0738799490177851

>  <r_i_glide_metal>  (1) 
-0

>  <r_i_glide_rewards>  (1) 
-0.6150769050409306

>  <r_lp_Energy>  (1) 
28.740504999999999

>  <s_epik_cmdline>  (1) 
J2VwaWtfcHl0aG9uJywgJy1waHQnLCAnMS4wJywgJy1waCcsICc3LjQnLCAnLXRuJywgJzgnLCAnLW1hJywgJzUwMCcsICctaW1hZScsICc8aW5maWxlLm1hZT4nLCAnLW9tYWUnLCAnPG91dGZpbGUubWFlPic=

>  <s_epik_input>  (1) 
W0NIMl0xW0NIMl1bQ0gyXVtDSF09W0NIXVtDQEhdMVtDQEBIXShDMj1PKU9bQ0gyXVtDQEBIXShbQ0BASF0oW0NIM10pTjJbQ0gzXSlbQ0gyXVtDSDJdW0NIMl1OKFtDQEBIXShDbClbQ0BASF0zRilbQ0gyXVtDSDJdW0NIMl1bTkhdMw==

>  <s_glide_docking_method>  (1) 
confgen

>  <s_i_glide_gridfile>  (1) 
gpcr_drd2_6luq_protein_autoprepared_prepared

>  <s_lp_Force_Field>  (1) 
S-OPLS

>  <s_lp_Variant>  (1) 
DiffSBDD_45_num_sample_100-2

>  <s_m_source_file>  (1) 
generated__ligand_DiffSBDD_2026-05-06_prepared.sdf

>  <GenAI_Model>  (1) 
DiffSBDD

>  <Protein>  (1) 
generic_title2

$$$$
DiffSBDD_3_num_sample_100
     RDKit          3D

  0  0  0  0  0  0  0  0  0  0999 V3000
M  V30 BEGIN CTAB
M  V30 COUNTS 43 44 0 0 1
M  V30 BEGIN ATOM
M  V30 1 C 9.317660 6.319674 -8.008855 0
M  V30 2 O 11.298288 9.138373 -5.478881 0
M  V30 3 C 8.330425 4.093962 -11.894264 0
M  V30 4 O 12.192550 8.969229 -9.491684 0 CHG=-1
M  V30 5 C 8.882937 5.508063 -11.595003 0
M  V30 6 C 9.937413 7.229156 -7.134661 0
M  V30 7 C 8.274927 5.369314 -7.491672 0
M  V30 8 C 8.096040 3.684364 -13.357242 0
M  V30 9 C 5.663968 4.571278 -13.542225 0
M  V30 10 O 9.038181 5.373552 -10.189226 0
M  V30 11 C 6.319475 7.045134 -13.922756 0
M  V30 12 C 10.906951 8.125836 -7.621273 0
M  V30 13 C 11.251389 8.111764 -9.001018 0
M  V30 14 C 7.889696 6.662725 -11.876673 0
M  V30 15 C 7.746642 7.099043 -13.346199 0
M  V30 16 C 6.624959 3.380944 -13.691437 0
M  V30 17 C 9.654837 6.296707 -9.371149 0
M  V30 18 C 10.619964 7.200507 -9.872844 0
M  V30 19 C 11.558716 9.079107 -6.682306 0
M  V30 20 C 5.929419 5.699692 -14.553521 0
M  V30 21 H 9.037608 3.373127 -11.479320 0
M  V30 22 H 7.416582 3.942656 -11.318608 0
M  V30 23 H 9.842933 5.654695 -12.090633 0
M  V30 24 H 9.667666 7.237900 -6.088438 0
M  V30 25 H 7.434834 5.369285 -8.179402 0
M  V30 26 H 8.681394 4.361701 -7.491668 0
M  V30 27 H 7.909447 5.674192 -6.510313 0
M  V30 28 H 8.536221 4.392282 -14.055405 0
M  V30 29 H 8.634840 2.752570 -13.521372 0
M  V30 30 H 4.647014 4.206716 -13.682808 0
M  V30 31 H 5.670176 4.946599 -12.521049 0
M  V30 32 H 6.260379 7.789053 -14.717322 0
M  V30 33 H 5.585900 7.355759 -13.177093 0
M  V30 34 H 6.920218 6.437626 -11.434894 0
M  V30 35 H 8.234835 7.540535 -11.330339 0
M  V30 36 H 8.431931 6.550533 -13.984739 0
M  V30 37 H 8.074476 8.136670 -13.401133 0
M  V30 38 H 6.569549 2.996224 -14.710284 0
M  V30 39 H 6.278369 2.568547 -13.051346 0
M  V30 40 H 10.884934 7.188883 -10.918067 0
M  V30 41 H 12.294747 9.733619 -7.141330 0
M  V30 42 H 6.686587 5.401761 -15.279461 0
M  V30 43 H 5.027404 5.851705 -15.143987 0
M  V30 END ATOM
M  V30 BEGIN BOND
M  V30 1 1 5 3
M  V30 2 2 6 1
M  V30 3 1 7 1
M  V30 4 1 8 3
M  V30 5 1 10 5
M  V30 6 1 12 6
M  V30 7 1 13 4
M  V30 8 2 13 12
M  V30 9 1 14 5
M  V30 10 1 15 11
M  V30 11 1 15 14
M  V30 12 1 16 8
M  V30 13 1 16 9
M  V30 14 1 17 1
M  V30 15 1 17 10
M  V30 16 1 18 13
M  V30 17 2 18 17
M  V30 18 2 19 2
M  V30 19 1 19 12
M  V30 20 1 20 9
M  V30 21 1 20 11
M  V30 22 1 21 3
M  V30 23 1 22 3
M  V30 24 1 23 5
M  V30 25 1 24 6
M  V30 26 1 25 7
M  V30 27 1 26 7
M  V30 28 1 27 7
M  V30 29 1 28 8
M  V30 30 1 29 8
M  V30 31 1 30 9
M  V30 32 1 31 9
M  V30 33 1 32 11
M  V30 34 1 33 11
M  V30 35 1 34 14
M  V30 36 1 35 14
M  V30 37 1 36 15
M  V30 38 1 37 15
M  V30 39 1 38 16
M  V30 40 1 39 16
M  V30 41 1 40 18
M  V30 42 1 41 19
M  V30 43 1 42 20
M  V30 44 1 43 20
M  V30 END BOND
M  V30 END CTAB
M  END
>  <i_epik_Tot_Q>  (1) 
-1

>  <i_epik_Tot_abs_Q>  (1) 
1

>  <i_i_glide_confnum>  (1) 
1

>  <i_i_glide_lignum>  (1) 
6

>  <i_i_glide_posenum>  (1) 
360

>  <i_i_glide_rotatable_bonds>  (1) 
3

>  <i_lp_mmshare_version>  (1) 
72125

>  <i_m_source_file_index>  (1) 
4

>  <i_f3d_flags>  (1) 
0

>  <num_sample>  (1) 
100

>  <b_lp_Chiralities_Consistent>  (1) 
1

>  <r_epik_Charging_Adjusted_Penalty>  (1) 
2.3608621275216617

>  <r_epik_Ionization_Penalty>  (1) 
1.1804310637608308

>  <r_epik_Ionization_Penalty_Charging>  (1) 
1.1804310637608308

>  <r_epik_Ionization_Penalty_Neutral>  (1) 
0

>  <r_epik_State_Penalty>  (1) 
1.1804310637608308

>  <r_glide_ring_energy>  (1) 
0

>  <r_i_docking_score>  (1) 
-3.2085026487617787

>  <r_i_glide_ecoul>  (1) 
0.74899676784530556

>  <r_i_glide_eff_state_penalty>  (1) 
1.1804310637608308

>  <r_i_glide_einternal>  (1) 
0.23879955211925541

>  <r_i_glide_emodel>  (1) 
-32.24829690633895

>  <r_i_glide_emodel_strain>  (1) 
0

>  <r_i_glide_energy>  (1) 
-26.944797961397207

>  <r_i_glide_erotb>  (1) 
0.47404219121644042

>  <r_i_glide_esite>  (1) 
0

>  <r_i_glide_evdw>  (1) 
-27.693794729242512

>  <r_i_glide_gscore>  (1) 
-4.3889337125226096

>  <r_i_glide_gscore_strain>  (1) 
0

>  <r_i_glide_hbond>  (1) 
0

>  <r_i_glide_ligand_efficiency>  (1) 
-0.16042513243808892

>  <r_i_glide_ligand_efficiency_ln>  (1) 
-0.80298238948526612

>  <r_i_glide_ligand_efficiency_sa>  (1) 
-0.43546080563451961

>  <r_i_glide_lipo>  (1) 
-1.1897018200371117

>  <r_i_glide_metal>  (1) 
-0

>  <r_i_glide_rewards>  (1) 
-2.4009338624166081

>  <r_lp_Energy>  (1) 
27.878793999999999

>  <s_epik_cmdline>  (1) 
J2VwaWtfcHl0aG9uJywgJy1waHQnLCAnMS4wJywgJy1waCcsICc3LjQnLCAnLXRuJywgJzgnLCAnLW1hJywgJzUwMCcsICctaW1hZScsICc8aW5maWxlLm1hZT4nLCAnLW9tYWUnLCAnPG91dGZpbGUubWFlPic=

>  <s_epik_input>  (1) 
W0NIM11jMVtjSF1jKFtDSF09TyljKFtPSF0pW2NIXWMxT1tDSF0yW0NIMl1bQ0gyXVtDSDJdW0NIMl1bQ0gyXVtDSDJdW0NIMl1bQ0gyXTI=

>  <s_glide_docking_method>  (1) 
confgen

>  <s_i_glide_gridfile>  (1) 
gpcr_drd2_6luq_protein_autoprepared_prepared

>  <s_lp_Force_Field>  (1) 
S-OPLS

>  <s_lp_Variant>  (1) 
DiffSBDD_3_num_sample_100-2

>  <s_m_source_file>  (1) 
generated__ligand_DiffSBDD_2026-05-06_prepared.sdf

>  <GenAI_Model>  (1) 
DiffSBDD

>  <Protein>  (1) 
generic_title2

$$$$
DiffSBDD_69_num_sample_100
     RDKit          3D

  0  0  0  0  0  0  0  0  0  0999 V3000
M  V30 BEGIN CTAB
M  V30 COUNTS 57 59 0 0 1
M  V30 BEGIN ATOM
M  V30 1 C 6.449094 6.112827 -11.603794 0
M  V30 2 C 11.089660 3.088340 -17.492486 0
M  V30 3 C 9.213763 6.338793 -10.043579 0
M  V30 4 C 6.318686 -0.105752 -17.855858 0 CFG=2
M  V30 5 N 8.199363 2.454873 -13.092660 0
M  V30 6 O 8.205597 4.528463 -12.261040 0
M  V30 7 O 5.969975 -0.586261 -20.172406 0
M  V30 8 N 7.385084 1.580847 -15.300819 0
M  V30 9 C 6.413349 1.109029 -14.314508 0 CFG=1
M  V30 10 C 12.220795 1.274324 -18.566884 0
M  V30 11 C 8.947195 6.734370 -11.508681 0
M  V30 12 C 12.216400 2.528112 -17.934518 0
M  V30 13 C 5.777697 0.195222 -19.246268 0
M  V30 14 C 12.709772 4.403381 -17.038393 0
M  V30 15 O 11.260533 4.282321 -16.916081 0
M  V30 16 C 7.851560 5.911913 -12.215454 0 CFG=2
M  V30 17 O 13.313495 3.260433 -17.718639 0
M  V30 18 C 10.993738 0.590143 -18.732806 0
M  V30 19 F 5.076317 1.325060 -19.437088 0
M  V30 20 C 9.791520 1.177018 -18.256244 0
M  V30 21 C 9.844762 2.454065 -17.627699 0
M  V30 22 C 9.842471 7.480643 -9.220732 0 CFG=1
M  V30 23 O 6.831799 4.114184 -14.033471 0
M  V30 24 O 9.834823 7.108776 -7.858823 0
M  V30 25 O 6.059056 -0.230472 -14.581494 0
M  V30 26 C 7.535184 0.769176 -17.493859 0 CFG=1
M  V30 27 C 7.665585 3.735138 -13.208386 0
M  V30 28 O 7.903123 0.503432 -16.139069 0
M  V30 29 O 6.662763 -1.471671 -17.704242 0
M  V30 30 C 11.280141 7.825497 -9.634574 0
M  V30 31 C 7.854461 1.340751 -13.938188 0 CFG=2
M  V30 32 O 8.595338 0.504740 -18.412158 0
M  V30 33 H 6.223622 7.173352 -11.491667 0
M  V30 34 H 6.360331 5.652181 -10.620343 0
M  V30 35 H 5.671005 5.680684 -12.233106 0
M  V30 36 H 8.269589 6.069812 -9.571420 0
M  V30 37 H 9.828083 5.438690 -10.000867 0
M  V30 38 H 5.507711 0.107477 -17.159741 0
M  V30 39 H 8.877756 2.313060 -12.356597 0
M  V30 40 H 5.633939 1.743024 -13.895815 0
M  V30 41 H 13.145262 0.839541 -18.919112 0
M  V30 42 H 8.648094 7.782799 -11.548007 0
M  V30 43 H 9.877066 6.671997 -12.074118 0
M  V30 44 H 12.946720 5.311356 -17.594088 0
M  V30 45 H 13.138459 4.487086 -16.038925 0
M  V30 46 H 7.816907 6.285051 -13.240854 0
M  V30 47 H 10.972221 -0.373797 -19.215623 0
M  V30 48 H 8.951718 2.931689 -17.258118 0
M  V30 49 H 9.225912 8.376352 -9.313241 0
M  V30 50 H 8.927242 7.003776 -7.601400 0
M  V30 51 H 5.938360 -0.723625 -13.779451 0
M  V30 52 H 7.217282 1.804396 -17.642935 0
M  V30 53 H 7.006034 -1.586897 -16.826597 0
M  V30 54 H 11.324923 8.157815 -10.671183 0
M  V30 55 H 11.943177 6.969552 -9.526889 0
M  V30 56 H 11.682815 8.630598 -9.019131 0
M  V30 57 H 8.463654 0.450881 -13.781911 0
M  V30 END ATOM
M  V30 BEGIN BOND
M  V30 1 1 9 8
M  V30 2 1 11 3
M  V30 3 2 12 2
M  V30 4 1 12 10
M  V30 5 1 13 4
M  V30 6 2 13 7
M  V30 7 1 15 2
M  V30 8 1 15 14
M  V30 9 1 16 1
M  V30 10 1 16 6
M  V30 11 1 16 11
M  V30 12 1 17 12
M  V30 13 1 17 14
M  V30 14 2 18 10
M  V30 15 1 19 13
M  V30 16 1 20 18
M  V30 17 1 21 2
M  V30 18 2 21 20
M  V30 19 1 22 3
M  V30 20 1 24 22
M  V30 21 1 25 9
M  V30 22 1 26 4
M  V30 23 1 27 5
M  V30 24 1 27 6
M  V30 25 2 27 23
M  V30 26 1 28 8
M  V30 27 1 28 26
M  V30 28 1 29 4
M  V30 29 1 30 22
M  V30 30 1 31 5
M  V30 31 1 31 8
M  V30 32 1 31 9
M  V30 33 1 32 20
M  V30 34 1 32 26
M  V30 35 1 33 1
M  V30 36 1 34 1
M  V30 37 1 35 1
M  V30 38 1 36 3
M  V30 39 1 37 3
M  V30 40 1 4 38 CFG=1
M  V30 41 1 39 5
M  V30 42 1 9 40 CFG=1
M  V30 43 1 41 10
M  V30 44 1 42 11
M  V30 45 1 43 11
M  V30 46 1 44 14
M  V30 47 1 45 14
M  V30 48 1 16 46 CFG=3
M  V30 49 1 47 18
M  V30 50 1 48 21
M  V30 51 1 22 49 CFG=1
M  V30 52 1 50 24
M  V30 53 1 51 25
M  V30 54 1 26 52 CFG=1
M  V30 55 1 53 29
M  V30 56 1 54 30
M  V30 57 1 55 30
M  V30 58 1 56 30
M  V30 59 1 31 57 CFG=3
M  V30 END BOND
M  V30 END CTAB
M  END
>  <i_epik_Tot_Q>  (1) 
0

>  <i_epik_Tot_abs_Q>  (1) 
0

>  <i_i_glide_confnum>  (1) 
3127

>  <i_i_glide_lignum>  (1) 
140

>  <i_i_glide_posenum>  (1) 
119

>  <i_i_glide_rotatable_bonds>  (1) 
16

>  <i_lp_mmshare_version>  (1) 
72125

>  <i_m_source_file_index>  (1) 
70

>  <i_f3d_flags>  (1) 
0

>  <num_sample>  (1) 
100

>  <b_lp_Chiralities_Consistent>  (1) 
1

>  <r_epik_Charging_Adjusted_Penalty>  (1) 
0.44341445758704578

>  <r_epik_Ionization_Penalty>  (1) 
0.44344869696236644

>  <r_epik_Ionization_Penalty_Charging>  (1) 
0

>  <r_epik_Ionization_Penalty_Neutral>  (1) 
0.44344869696236644

>  <r_epik_State_Penalty>  (1) 
0.44341445758704578

>  <r_glide_ring_energy>  (1) 
0

>  <r_i_docking_score>  (1) 
-3.2025026893274577

>  <r_i_glide_ecoul>  (1) 
-5.3762046385124451

>  <r_i_glide_eff_state_penalty>  (1) 
0.44341445758704578

>  <r_i_glide_einternal>  (1) 
11.854067739831606

>  <r_i_glide_emodel>  (1) 
-43.808581641286551

>  <r_i_glide_emodel_strain>  (1) 
0.5820475127656124

>  <r_i_glide_energy>  (1) 
-40.303092095588866

>  <r_i_glide_erotb>  (1) 
1.0444707678755103

>  <r_i_glide_esite>  (1) 
0

>  <r_i_glide_evdw>  (1) 
-34.926887457076418

>  <r_i_glide_gscore>  (1) 
-3.6459171469145035

>  <r_i_glide_gscore_strain>  (1) 
0

>  <r_i_glide_hbond>  (1) 
-0.076827196291571323

>  <r_i_glide_ligand_efficiency>  (1) 
-0.10007820904148305

>  <r_i_glide_ligand_efficiency_ln>  (1) 
-0.71712764906668491

>  <r_i_glide_ligand_efficiency_sa>  (1) 
-0.31772850862308721

>  <r_i_glide_lipo>  (1) 
-0.61485407549614257

>  <r_i_glide_metal>  (1) 
-0

>  <r_i_glide_rewards>  (1) 
-1.4459315743716123

>  <r_lp_Energy>  (1) 
34.780937000000002

>  <r_lp_tautomer_probability>  (1) 
1

>  <s_epik_Chemistry_Notes>  (1) 
This compound has an ester and may undergo hydrolysis at high or low pH. This compound contains an acetal/aminal-like group ( X-CH(R)-Y where X, Y are N, S, or O) that may be acid/base labile, releasing an aldehyde. This compound has a N-S or N-O group and may undergo hydrolysis at high or low pH.

>  <s_epik_cmdline>  (1) 
J2VwaWtfcHl0aG9uJywgJy1waHQnLCAnMS4wJywgJy1waCcsICc3LjQnLCAnLXRuJywgJzgnLCAnLW1hJywgJzUwMCcsICctaW1hZScsICc8aW5maWxlLm1hZT4nLCAnLW9tYWUnLCAnPG91dGZpbGUubWFlPic=

>  <s_epik_input>  (1) 
W09IXVtDQEBIXShbQ0gzXSlbQ0gyXVtDSDJdW0NASF0oW0NIM10pT0MoPU8pW05IXVtDQEhdMVtDSF0oW09IXSlbTkBAXTFPW0NASF0oW0NAQEhdKEMoPU8pRilbT0hdKU9jKFtjSF0yKVtjSF1bY0hdYyhjMjMpT1tDSDJdTzM=

>  <s_glide_docking_method>  (1) 
confgen

>  <s_i_glide_gridfile>  (1) 
gpcr_drd2_6luq_protein_autoprepared_prepared

>  <s_lp_Force_Field>  (1) 
S-OPLS

>  <s_lp_Variant>  (1) 
DiffSBDD_69_num_sample_100-2

>  <s_m_source_file>  (1) 
generated__ligand_DiffSBDD_2026-05-06_prepared.sdf

>  <GenAI_Model>  (1) 
DiffSBDD

>  <Protein>  (1) 
generic_title2

$$$$
DiffSBDD_18_num_sample_100
     RDKit          3D

  0  0  0  0  0  0  0  0  0  0999 V3000
M  V30 BEGIN CTAB
M  V30 COUNTS 53 56 0 0 1
M  V30 BEGIN ATOM
M  V30 1 C 11.941720 4.273104 -18.372108 0
M  V30 2 O 18.234839 5.702774 -15.878255 0 CHG=-1
M  V30 3 O 5.656306 6.432823 -20.536808 0
M  V30 4 C 14.996421 2.720620 -17.117890 0
M  V30 5 C 7.024823 4.874027 -18.186545 0 CFG=2
M  V30 6 O 13.613361 2.581031 -17.695041 0
M  V30 7 C 5.133188 7.702991 -20.906890 0
M  V30 8 C 5.791208 7.868553 -16.181963 0
M  V30 9 S 8.453818 3.774109 -18.017716 0
M  V30 10 C 8.964784 4.795848 -19.413717 0 CFG=2
M  V30 11 C 7.046595 5.366017 -15.784386 0
M  V30 12 C 17.241565 5.669501 -16.635724 0
M  V30 13 S 10.087551 6.205104 -19.091699 0
M  V30 14 C 7.459698 5.112340 -19.671031 0 CFG=2
M  V30 15 C 5.853116 6.784990 -17.272094 0
M  V30 16 O 17.148348 6.238398 -17.744723 0
M  V30 17 C 13.917500 6.175570 -17.689522 0
M  V30 18 N 15.241157 4.169763 -17.187424 0
M  V30 19 C 14.134507 4.790705 -17.594077 0
M  V30 20 C 11.662883 5.659581 -18.503918 0
M  V30 21 O 5.794198 7.250040 -14.903024 0
M  V30 22 C 7.701488 6.416284 -21.845704 0
M  V30 23 C 16.030234 4.854357 -16.157282 0
M  V30 24 C 13.207214 3.891715 -17.902921 0
M  V30 25 C 12.657269 6.619511 -18.156179 0
M  V30 26 C 6.949440 6.449474 -14.693742 0
M  V30 27 N 7.024192 5.916629 -17.146338 0
M  V30 28 C 7.077569 6.386789 -20.436882 0 CFG=1
M  V30 29 H 11.202247 3.529793 -18.620452 0
M  V30 30 H 15.026016 2.373653 -16.083794 0
M  V30 31 H 15.717755 2.199211 -17.744742 0
M  V30 32 H 6.104354 4.293368 -18.157766 0
M  V30 33 H 4.046373 7.685148 -20.844843 0
M  V30 34 H 5.487220 8.494439 -20.244711 0
M  V30 35 H 5.390725 7.965717 -21.932281 0
M  V30 36 H 6.630739 8.559515 -16.265277 0
M  V30 37 H 4.881679 8.459560 -16.286283 0
M  V30 38 H 9.377564 4.174996 -20.209183 0
M  V30 39 H 6.234814 4.653544 -15.653131 0
M  V30 40 H 7.967720 4.810361 -15.611856 0
M  V30 41 H 7.064055 4.267235 -20.239469 0
M  V30 42 H 5.852033 7.281931 -18.236929 0
M  V30 43 H 4.942361 6.185659 -17.230070 0
M  V30 44 H 14.688945 6.882299 -17.423855 0
M  V30 45 H 8.784175 6.299717 -21.805990 0
M  V30 46 H 7.304799 5.613024 -22.466969 0
M  V30 47 H 7.509899 7.359156 -22.356704 0
M  V30 48 H 15.399627 5.492106 -15.536171 0
M  V30 49 H 16.422455 4.087912 -15.491724 0
M  V30 50 H 12.452260 7.676701 -18.249517 0
M  V30 51 H 7.834826 7.083421 -14.691622 0
M  V30 52 H 6.888263 5.989005 -13.707609 0
M  V30 53 H 7.431454 7.255384 -19.879523 0
M  V30 END ATOM
M  V30 BEGIN BOND
M  V30 1 1 6 4
M  V30 2 1 7 3
M  V30 3 1 9 5
M  V30 4 1 10 9
M  V30 5 1 12 2
M  V30 6 1 13 10
M  V30 7 1 14 5
M  V30 8 1 14 10
M  V30 9 1 15 8
M  V30 10 2 16 12
M  V30 11 1 18 4
M  V30 12 1 19 17
M  V30 13 1 19 18
M  V30 14 2 20 1
M  V30 15 1 20 13
M  V30 16 1 21 8
M  V30 17 1 23 12
M  V30 18 1 23 18
M  V30 19 1 24 1
M  V30 20 1 24 6
M  V30 21 2 24 19
M  V30 22 2 25 17
M  V30 23 1 25 20
M  V30 24 1 26 11
M  V30 25 1 26 21
M  V30 26 1 27 5
M  V30 27 1 27 11
M  V30 28 1 27 15
M  V30 29 1 28 3
M  V30 30 1 28 14
M  V30 31 1 28 22
M  V30 32 1 29 1
M  V30 33 1 30 4
M  V30 34 1 31 4
M  V30 35 1 5 32 CFG=3
M  V30 36 1 33 7
M  V30 37 1 34 7
M  V30 38 1 35 7
M  V30 39 1 36 8
M  V30 40 1 37 8
M  V30 41 1 10 38 CFG=3
M  V30 42 1 39 11
M  V30 43 1 40 11
M  V30 44 1 14 41 CFG=3
M  V30 45 1 42 15
M  V30 46 1 43 15
M  V30 47 1 44 17
M  V30 48 1 45 22
M  V30 49 1 46 22
M  V30 50 1 47 22
M  V30 51 1 48 23
M  V30 52 1 49 23
M  V30 53 1 50 25
M  V30 54 1 51 26
M  V30 55 1 52 26
M  V30 56 1 28 53 CFG=1
M  V30 END BOND
M  V30 END CTAB
M  END
>  <i_epik_Tot_Q>  (1) 
-1

>  <i_epik_Tot_abs_Q>  (1) 
1

>  <i_i_glide_confnum>  (1) 
159

>  <i_i_glide_lignum>  (1) 
30

>  <i_i_glide_posenum>  (1) 
165

>  <i_i_glide_rotatable_bonds>  (1) 
7

>  <i_lp_mmshare_version>  (1) 
72125

>  <i_m_source_file_index>  (1) 
19

>  <i_f3d_flags>  (1) 
0

>  <num_sample>  (1) 
100

>  <b_lp_Chiralities_Consistent>  (1) 
1

>  <r_epik_Charging_Adjusted_Penalty>  (1) 
0.00040573195342964225

>  <r_epik_Ionization_Penalty>  (1) 
0.00047194480807020967

>  <r_epik_Ionization_Penalty_Charging>  (1) 
0.00040573195342964225

>  <r_epik_Ionization_Penalty_Neutral>  (1) 
6.6212854640567391e-05

>  <r_epik_State_Penalty>  (1) 
-0

>  <r_glide_ring_energy>  (1) 
0.0045149093831275133

>  <r_i_docking_score>  (1) 
-3.1979380017340917

>  <r_i_glide_ecoul>  (1) 
-0.12089643272628248

>  <r_i_glide_eff_state_penalty>  (1) 
-0

>  <r_i_glide_einternal>  (1) 
0.62514624558467702

>  <r_i_glide_emodel>  (1) 
-30.612839659449975

>  <r_i_glide_emodel_strain>  (1) 
0.11415725652605602

>  <r_i_glide_energy>  (1) 
-25.844063706872682

>  <r_i_glide_erotb>  (1) 
0.54773737594122907

>  <r_i_glide_esite>  (1) 
-0.023419901510387309

>  <r_i_glide_evdw>  (1) 
-25.723167274146398

>  <r_i_glide_gscore>  (1) 
-3.1979380017340917

>  <r_i_glide_gscore_strain>  (1) 
0

>  <r_i_glide_hbond>  (1) 
0

>  <r_i_glide_ligand_efficiency>  (1) 
-0.11421207149050328

>  <r_i_glide_ligand_efficiency_ln>  (1) 
-0.73817798633997544

>  <r_i_glide_ligand_efficiency_sa>  (1) 
-0.34681511674313709

>  <r_i_glide_lipo>  (1) 
-1.4841895166549328

>  <r_i_glide_metal>  (1) 
-0

>  <r_i_glide_rewards>  (1) 
-0.93377313089373815

>  <r_lp_Energy>  (1) 
43.419910999999999

>  <r_lp_tautomer_probability>  (1) 
1

>  <s_epik_Chemistry_Notes>  (1) 
This compound contains an acetal/aminal-like group ( X-CH(R)-Y where X, Y are N, S, or O) that may be acid/base labile, releasing an aldehyde.

>  <s_epik_cmdline>  (1) 
J2VwaWtfcHl0aG9uJywgJy1waHQnLCAnMS4wJywgJy1waCcsICc3LjQnLCAnLXRuJywgJzgnLCAnLW1hJywgJzUwMCcsICctaW1hZScsICc8aW5maWxlLm1hZT4nLCAnLW9tYWUnLCAnPG91dGZpbGUubWFlPic=

>  <s_epik_input>  (1) 
W09IXUMoPU8pW0NIMl1OMVtDSDJdT2MoYzEyKVtjSF1jKFtjSF1bY0hdMilTW0NASF0oW0NAQEhdM1tDQEBIXShbQ0gzXSlPW0NIM10pU1tDQEhdM040W0NIMl1bQ0gyXU9bQ0gyXVtDSDJdNA==

>  <s_glide_docking_method>  (1) 
confgen

>  <s_i_glide_gridfile>  (1) 
gpcr_drd2_6luq_protein_autoprepared_prepared

>  <s_lp_Force_Field>  (1) 
S-OPLS

>  <s_lp_Variant>  (1) 
DiffSBDD_18_num_sample_100-1

>  <s_m_source_file>  (1) 
generated__ligand_DiffSBDD_2026-05-06_prepared.sdf

>  <GenAI_Model>  (1) 
DiffSBDD

>  <Protein>  (1) 
generic_title2

$$$$
DiffSBDD_68_num_sample_100
     RDKit          3D

  0  0  0  0  0  0  0  0  0  0999 V3000
M  V30 BEGIN CTAB
M  V30 COUNTS 88 93 0 0 1
M  V30 BEGIN ATOM
M  V30 1 C 16.192722 0.848078 -20.954124 0
M  V30 2 C 14.672966 2.288851 -18.091888 0
M  V30 3 C 5.242138 4.341516 -20.292076 0
M  V30 4 C 10.124355 2.184214 -18.219124 0
M  V30 5 C 21.443531 4.266114 -22.837498 0
M  V30 6 C 17.875350 4.300711 -21.752333 0 CFG=1
M  V30 7 O 16.939041 1.749243 -23.063588 0
M  V30 8 C 16.311678 4.909881 -19.200937 0
M  V30 9 O 20.698395 4.787169 -23.899961 0
M  V30 10 C 10.234923 -0.181628 -19.175435 0
M  V30 11 C 17.740262 5.685708 -21.064615 0
M  V30 12 C 5.869282 5.406550 -19.495385 0
M  V30 13 C 6.599990 2.563611 -19.164263 0 CFG=2
M  V30 14 C 19.260305 3.547124 -21.492560 0 CFG=2
M  V30 15 C 14.084727 2.030797 -20.534784 0 CFG=1
M  V30 16 C 7.309157 3.563210 -18.312154 0 CFG=2
M  V30 17 O 21.908448 2.969406 -23.118523 0
M  V30 18 C 6.890185 5.016053 -18.420898 0
M  V30 19 C 22.764327 7.533286 -22.746519 0
M  V30 20 C 16.184151 3.495527 -19.817185 0 CFG=1
M  V30 21 C 12.476773 1.122894 -18.724106 0 CFG=2
M  V30 22 C 13.220871 1.993436 -17.685769 0
M  V30 23 O 19.213328 2.816269 -20.291677 0
M  V30 24 O 20.589977 5.544410 -20.828038 0
M  V30 25 C 8.062989 2.850790 -19.419608 0 CFG=1
M  V30 26 C 16.611927 1.984276 -21.902292 0
M  V30 27 C 21.750310 6.363826 -20.742802 0 CFG=1
M  V30 28 C 12.625167 1.715557 -20.147750 0
M  V30 29 C 17.624703 5.603328 -19.545912 0
M  V30 30 C 14.750180 2.953126 -19.484205 0 CFG=2
M  V30 31 C 21.745939 7.366918 -21.887440 0
M  V30 32 O 21.798888 7.047289 -19.500794 0
M  V30 33 C 5.590340 3.050166 -20.119097 0
M  V30 34 C 16.597399 3.438490 -21.339591 0 CFG=2
M  V30 35 C 17.759945 4.627078 -23.262531 0
M  V30 36 O 23.065226 7.769474 -19.424929 0
M  V30 37 N 9.035409 1.849621 -19.100540 0
M  V30 38 S 5.434827 6.983631 -19.788724 0
M  V30 39 C 9.066272 0.645114 -19.632455 0
M  V30 40 O 14.780732 0.800811 -20.730987 0
M  V30 41 O 8.239556 0.212671 -20.434528 0
M  V30 42 C 11.000483 0.876224 -18.298727 0 CFG=1
M  V30 43 C 20.656605 4.280770 -21.490845 0 CFG=2
M  V30 44 H 16.496805 -0.103940 -21.389510 0
M  V30 45 H 16.724191 0.922076 -20.007392 0
M  V30 46 H 15.122894 2.933397 -17.337076 0
M  V30 47 H 15.249158 1.362623 -18.085980 0
M  V30 48 H 4.493683 4.597529 -21.028163 0
M  V30 49 H 9.763536 2.352893 -17.204055 0
M  V30 50 H 10.633377 3.085993 -18.557614 0
M  V30 51 H 22.360569 4.843387 -22.770651 0
M  V30 52 H 16.208689 4.861961 -18.116751 0
M  V30 53 H 15.494709 5.543205 -19.550370 0
M  V30 54 H 19.832478 4.410682 -23.859402 0
M  V30 55 H 10.804988 -0.546492 -20.028769 0
M  V30 56 H 9.888999 -1.030243 -18.584094 0
M  V30 57 H 18.527434 6.375264 -21.358793 0
M  V30 58 H 16.836843 6.174232 -21.434721 0
M  V30 59 H 6.320332 1.629292 -18.680312 0
M  V30 60 H 19.341433 2.756061 -22.239047 0
M  V30 61 H 14.025023 2.549355 -21.491909 0
M  V30 62 H 7.532379 3.248524 -17.294573 0
M  V30 63 H 22.525501 3.034707 -23.831692 0
M  V30 64 H 7.789435 5.618186 -18.556822 0
M  V30 65 H 22.706698 8.261378 -23.542274 0
M  V30 66 H 23.665947 6.944404 -22.663627 0
M  V30 67 H 16.898995 2.886337 -19.273821 0
M  V30 68 H 12.972626 0.150778 -18.732660 0
M  V30 69 H 12.703605 2.941961 -17.543642 0
M  V30 70 H 13.211415 1.498882 -16.712901 0
M  V30 71 H 19.208167 3.436117 -19.579206 0
M  V30 72 H 8.289785 3.444843 -20.303505 0
M  V30 73 H 22.644207 5.737744 -20.777833 0
M  V30 74 H 12.049536 2.636923 -20.227500 0
M  V30 75 H 12.201885 1.038932 -20.889567 0
M  V30 76 H 18.475593 5.085940 -19.106003 0
M  V30 77 H 17.626725 6.608868 -19.123975 0
M  V30 78 H 14.091947 3.822470 -19.446470 0
M  V30 79 H 20.856932 7.970649 -21.993447 0
M  V30 80 H 5.109076 2.296478 -20.726191 0
M  V30 81 H 15.761559 3.912650 -21.852401 0
M  V30 82 H 16.734248 4.863545 -23.548165 0
M  V30 83 H 18.346305 5.502969 -23.536993 0
M  V30 84 H 18.083308 3.799431 -23.889209 0
M  V30 85 H 23.627977 7.107600 -19.050304 0
M  V30 86 H 6.473519 5.311705 -17.457302 0
M  V30 87 H 11.038745 0.458311 -17.292820 0
M  V30 88 H 21.310795 3.709959 -20.826740 0
M  V30 END ATOM
M  V30 BEGIN BOND
M  V30 1 1 9 5
M  V30 2 1 11 6
M  V30 3 1 12 3
M  V30 4 1 14 6
M  V30 5 1 16 13
M  V30 6 1 17 5
M  V30 7 1 18 12
M  V30 8 1 18 16
M  V30 9 1 20 8
M  V30 10 1 22 2
M  V30 11 1 22 21
M  V30 12 1 23 14
M  V30 13 1 25 13
M  V30 14 1 25 16
M  V30 15 1 26 1
M  V30 16 2 26 7
M  V30 17 1 27 24
M  V30 18 1 28 15
M  V30 19 1 28 21
M  V30 20 1 29 8
M  V30 21 1 29 11
M  V30 22 1 30 2
M  V30 23 1 30 15
M  V30 24 1 30 20
M  V30 25 2 31 19
M  V30 26 1 31 27
M  V30 27 1 32 27
M  V30 28 2 33 3
M  V30 29 1 33 13
M  V30 30 1 34 6
M  V30 31 1 34 20
M  V30 32 1 34 26
M  V30 33 1 6 35 CFG=3
M  V30 34 1 36 32
M  V30 35 1 37 4
M  V30 36 1 37 25
M  V30 37 2 38 12
M  V30 38 1 39 10
M  V30 39 1 39 37
M  V30 40 1 40 1
M  V30 41 1 40 15
M  V30 42 2 41 39
M  V30 43 1 42 4
M  V30 44 1 42 10
M  V30 45 1 42 21
M  V30 46 1 43 5
M  V30 47 1 43 14
M  V30 48 1 43 24
M  V30 49 1 44 1
M  V30 50 1 45 1
M  V30 51 1 46 2
M  V30 52 1 47 2
M  V30 53 1 48 3
M  V30 54 1 49 4
M  V30 55 1 50 4
M  V30 56 1 51 5
M  V30 57 1 52 8
M  V30 58 1 53 8
M  V30 59 1 54 9
M  V30 60 1 55 10
M  V30 61 1 56 10
M  V30 62 1 57 11
M  V30 63 1 58 11
M  V30 64 1 13 59 CFG=1
M  V30 65 1 14 60 CFG=3
M  V30 66 1 15 61 CFG=3
M  V30 67 1 16 62 CFG=1
M  V30 68 1 63 17
M  V30 69 1 64 18
M  V30 70 1 65 19
M  V30 71 1 66 19
M  V30 72 1 20 67 CFG=1
M  V30 73 1 21 68 CFG=3
M  V30 74 1 69 22
M  V30 75 1 70 22
M  V30 76 1 71 23
M  V30 77 1 25 72 CFG=3
M  V30 78 1 27 73 CFG=3
M  V30 79 1 74 28
M  V30 80 1 75 28
M  V30 81 1 76 29
M  V30 82 1 77 29
M  V30 83 1 30 78 CFG=1
M  V30 84 1 79 31
M  V30 85 1 80 33
M  V30 86 1 34 81 CFG=3
M  V30 87 1 82 35
M  V30 88 1 83 35
M  V30 89 1 84 35
M  V30 90 1 85 36
M  V30 91 1 86 18
M  V30 92 1 42 87 CFG=1
M  V30 93 1 43 88 CFG=1
M  V30 END BOND
M  V30 END CTAB
M  END
>  <i_epik_Tot_Q>  (1) 
0

>  <i_epik_Tot_abs_Q>  (1) 
0

>  <i_i_glide_confnum>  (1) 
2569

>  <i_i_glide_lignum>  (1) 
137

>  <i_i_glide_posenum>  (1) 
372

>  <i_i_glide_rotatable_bonds>  (1) 
13

>  <i_lp_mmshare_version>  (1) 
72125

>  <i_m_source_file_index>  (1) 
69

>  <i_f3d_flags>  (1) 
0

>  <num_sample>  (1) 
100

>  <b_lp_Chiralities_Consistent>  (1) 
1

>  <r_epik_Charging_Adjusted_Penalty>  (1) 
0

>  <r_epik_Ionization_Penalty>  (1) 
0.00032218278010154739

>  <r_epik_Ionization_Penalty_Charging>  (1) 
0

>  <r_epik_Ionization_Penalty_Neutral>  (1) 
0.00032218278010154739

>  <r_epik_State_Penalty>  (1) 
-0

>  <r_glide_ring_energy>  (1) 
0

>  <r_i_docking_score>  (1) 
-3.1944000647791149

>  <r_i_glide_ecoul>  (1) 
-1.0247615331655995

>  <r_i_glide_eff_state_penalty>  (1) 
-0

>  <r_i_glide_einternal>  (1) 
8.6393876319024869

>  <r_i_glide_emodel>  (1) 
-29.838342267070075

>  <r_i_glide_emodel_strain>  (1) 
4.5294351469179759

>  <r_i_glide_energy>  (1) 
-35.009927338520946

>  <r_i_glide_erotb>  (1) 
0.36271052330308029

>  <r_i_glide_esite>  (1) 
-0.0085924286947607811

>  <r_i_glide_evdw>  (1) 
-33.985165805355344

>  <r_i_glide_gscore>  (1) 
-3.1944000647791149

>  <r_i_glide_gscore_strain>  (1) 
0.13235878672949397

>  <r_i_glide_hbond>  (1) 
-0.18959880346192992

>  <r_i_glide_ligand_efficiency>  (1) 
-0.074288373599514304

>  <r_i_glide_ligand_efficiency_ln>  (1) 
-0.67092329395060257

>  <r_i_glide_ligand_efficiency_sa>  (1) 
-0.26026174397782276

>  <r_i_glide_lipo>  (1) 
-1.1891307672571727

>  <r_i_glide_metal>  (1) 
-0

>  <r_i_glide_rewards>  (1) 
-0.44917485515521827

>  <r_lp_Energy>  (1) 
44.537447999999998

>  <r_lp_tautomer_probability>  (1) 
1

>  <s_epik_Chemistry_Notes>  (1) 
This compound contains an acetal/aminal-like group ( X-CH(R)-Y where X, Y are N, S, or O) that may be acid/base labile, releasing an aldehyde.

>  <s_epik_cmdline>  (1) 
J2VwaWtfcHl0aG9uJywgJy1waHQnLCAnMS4wJywgJy1waCcsICc3LjQnLCAnLXRuJywgJzgnLCAnLW1hJywgJzUwMCcsICctaW1hZScsICc8aW5maWxlLm1hZT4nLCAnLW9tYWUnLCAnPG91dGZpbGUubWFlPic=

>  <s_epik_input>  (1) 
W0NIMl09W0NIXVtDQEBIXShPW09IXSlPW0NASF0oW0NIXShbT0hdKVtPSF0pW0NAQEhdKFtPSF0pW0NAXShbQ0gzXSkoW0NIMl1bQ0gyXVtDSDJdMSlbQ0BASF0oQyg9TylbQ0gyXU8yKVtDQEBIXTFbQ0BASF0oW0NAQEhdMjMpW0NIMl1bQ0gyXVtDQEhdKFtDSDJdMylbQ0BIXShbQ0gyXUM0PU8pW0NIMl1ONFtDQEBIXTVbQ0BIXShbQ0BIXTU2KVtDSF09QyhbU0hdKVtDSF09W0NIXTY=

>  <s_glide_docking_method>  (1) 
confgen

>  <s_i_glide_gridfile>  (1) 
gpcr_drd2_6luq_protein_autoprepared_prepared

>  <s_lp_Force_Field>  (1) 
S-OPLS

>  <s_lp_Variant>  (1) 
DiffSBDD_68_num_sample_100-1

>  <s_m_source_file>  (1) 
generated__ligand_DiffSBDD_2026-05-06_prepared.sdf

>  <GenAI_Model>  (1) 
DiffSBDD

>  <Protein>  (1) 
generic_title2

$$$$
DiffSBDD_80_num_sample_100
     RDKit          3D

  0  0  0  0  0  0  0  0  0  0999 V3000
M  V30 BEGIN CTAB
M  V30 COUNTS 57 60 0 0 1
M  V30 BEGIN ATOM
M  V30 1 C 14.723683 5.841410 -21.145503 0
M  V30 2 C 9.857785 5.300612 -20.519167 0
M  V30 3 O 14.445292 9.342118 -21.124233 0
M  V30 4 C 8.941247 3.652703 -17.080686 0
M  V30 5 C 14.234821 8.969243 -19.971796 0
M  V30 6 C 8.155926 5.899331 -18.691677 0
M  V30 7 C 13.549943 7.630107 -19.671546 0
M  V30 8 C 14.635912 9.826568 -18.778503 0
M  V30 9 C 10.654257 7.128904 -21.793914 0
M  V30 10 C 12.212617 5.650401 -20.647823 0 CFG=2
M  V30 11 C 7.267379 5.421008 -17.554285 0 CFG=1
M  V30 12 O 6.014052 4.939900 -11.672566 0 CHG=-1
M  V30 13 C 7.317224 4.274546 -15.384350 0
M  V30 14 C 12.356425 4.872827 -19.330749 0
M  V30 15 C 7.895081 4.387576 -16.671245 0
M  V30 16 C 6.989561 3.269246 -13.083403 0
M  V30 17 C 9.626931 3.910854 -18.345418 0
M  V30 18 F 7.992583 3.425556 -12.215830 0
M  V30 19 C 9.269749 4.993651 -19.130681 0
M  V30 20 C 15.837722 6.627757 -21.850488 0
M  V30 21 C 7.607836 3.318125 -14.482390 0
M  V30 22 C 6.403989 5.303089 -15.096213 0
M  V30 23 C 13.415959 6.632045 -20.859205 0 CFG=2
M  V30 24 O 7.908420 6.969301 -19.241175 0
M  V30 25 S 6.234826 6.514341 -16.395409 0
M  V30 26 N 10.902858 6.322915 -20.597958 0
M  V30 27 F 6.489737 2.050275 -12.872354 0
M  V30 28 C 10.713203 3.009609 -18.739586 0
M  V30 29 C 11.896515 3.419765 -19.253784 0
M  V30 30 C 5.720871 5.369292 -13.933136 0
M  V30 31 C 5.834834 4.323648 -12.811121 0 CFG=2
M  V30 32 H 15.130880 5.418483 -20.227806 0
M  V30 33 H 14.483942 4.989610 -21.782858 0
M  V30 34 H 10.168477 4.378308 -21.011379 0
M  V30 35 H 9.000596 5.605053 -21.122572 0
M  V30 36 H 9.352385 2.905983 -16.424091 0
M  V30 37 H 14.064828 7.151981 -18.838634 0
M  V30 38 H 12.556699 7.885201 -19.301319 0
M  V30 39 H 14.245149 9.405148 -17.852257 0
M  V30 40 H 14.235658 10.834450 -18.889991 0
M  V30 41 H 15.721021 9.889890 -18.704091 0
M  V30 42 H 11.304453 8.001831 -21.834660 0
M  V30 43 H 9.637045 7.523820 -21.788848 0
M  V30 44 H 10.791175 6.546973 -22.706238 0
M  V30 45 H 12.215395 4.948100 -21.483520 0
M  V30 46 H 6.501723 4.858295 -18.088556 0
M  V30 47 H 13.403410 4.814714 -19.042565 0
M  V30 48 H 11.917628 5.439861 -18.507716 0
M  V30 49 H 16.650932 5.962616 -22.140823 0
M  V30 50 H 16.266869 7.389619 -21.201348 0
M  V30 51 H 15.471833 7.115385 -22.754524 0
M  V30 52 H 8.310203 2.540682 -14.718589 0
M  V30 53 H 13.230432 7.188008 -21.776052 0
M  V30 54 H 10.554066 1.947336 -18.623504 0
M  V30 55 H 12.628483 2.677758 -19.537820 0
M  V30 56 H 5.034840 6.185145 -13.763360 0
M  V30 57 H 4.910021 3.769303 -12.975908 0
M  V30 END ATOM
M  V30 BEGIN BOND
M  V30 1 2 5 3
M  V30 2 1 7 5
M  V30 3 1 8 5
M  V30 4 1 11 6
M  V30 5 1 14 10
M  V30 6 2 15 4
M  V30 7 1 15 11
M  V30 8 1 15 13
M  V30 9 1 17 4
M  V30 10 1 18 16
M  V30 11 1 19 2
M  V30 12 1 19 6
M  V30 13 2 19 17
M  V30 14 1 20 1
M  V30 15 2 21 13
M  V30 16 1 21 16
M  V30 17 1 22 13
M  V30 18 1 23 1
M  V30 19 1 23 7
M  V30 20 1 23 10
M  V30 21 2 24 6
M  V30 22 1 25 11
M  V30 23 1 25 22
M  V30 24 1 26 2
M  V30 25 1 26 9
M  V30 26 1 26 10
M  V30 27 1 27 16
M  V30 28 1 28 17
M  V30 29 1 29 14
M  V30 30 2 29 28
M  V30 31 2 30 22
M  V30 32 1 31 12
M  V30 33 1 31 16
M  V30 34 1 31 30
M  V30 35 1 32 1
M  V30 36 1 33 1
M  V30 37 1 34 2
M  V30 38 1 35 2
M  V30 39 1 36 4
M  V30 40 1 37 7
M  V30 41 1 38 7
M  V30 42 1 39 8
M  V30 43 1 40 8
M  V30 44 1 41 8
M  V30 45 1 42 9
M  V30 46 1 43 9
M  V30 47 1 44 9
M  V30 48 1 10 45 CFG=3
M  V30 49 1 11 46 CFG=3
M  V30 50 1 47 14
M  V30 51 1 48 14
M  V30 52 1 49 20
M  V30 53 1 50 20
M  V30 54 1 51 20
M  V30 55 1 52 21
M  V30 56 1 23 53 CFG=3
M  V30 57 1 54 28
M  V30 58 1 55 29
M  V30 59 1 56 30
M  V30 60 1 31 57 CFG=1
M  V30 END BOND
M  V30 END CTAB
M  END
>  <i_epik_Tot_Q>  (1) 
-1

>  <i_epik_Tot_abs_Q>  (1) 
1

>  <i_i_glide_confnum>  (1) 
6

>  <i_i_glide_lignum>  (1) 
162

>  <i_i_glide_posenum>  (1) 
112

>  <i_i_glide_rotatable_bonds>  (1) 
4

>  <i_lp_mmshare_version>  (1) 
72125

>  <i_m_source_file_index>  (1) 
81

>  <i_f3d_flags>  (1) 
0

>  <num_sample>  (1) 
100

>  <b_lp_Chiralities_Consistent>  (1) 
1

>  <r_epik_Charging_Adjusted_Penalty>  (1) 
8.7803366933407872e-06

>  <r_epik_Ionization_Penalty>  (1) 
0.00048743314384941063

>  <r_epik_Ionization_Penalty_Charging>  (1) 
8.7803366933407872e-06

>  <r_epik_Ionization_Penalty_Neutral>  (1) 
0.00047865280715606983

>  <r_epik_State_Penalty>  (1) 
-0

>  <r_glide_ring_energy>  (1) 
0

>  <r_i_docking_score>  (1) 
-3.1856556429652576

>  <r_i_glide_ecoul>  (1) 
2.0984097131619519

>  <r_i_glide_eff_state_penalty>  (1) 
-0

>  <r_i_glide_einternal>  (1) 
2.2650196643849281

>  <r_i_glide_emodel>  (1) 
-26.511987742323637

>  <r_i_glide_emodel_strain>  (1) 
0

>  <r_i_glide_energy>  (1) 
-24.377052910527677

>  <r_i_glide_erotb>  (1) 
0.20077648214602295

>  <r_i_glide_esite>  (1) 
0

>  <r_i_glide_evdw>  (1) 
-26.47546262368963

>  <r_i_glide_gscore>  (1) 
-3.1856556429652576

>  <r_i_glide_gscore_strain>  (1) 
0

>  <r_i_glide_hbond>  (1) 
0

>  <r_i_glide_ligand_efficiency>  (1) 
-0.10276308525694379

>  <r_i_glide_ligand_efficiency_ln>  (1) 
-0.7184629761093686

>  <r_i_glide_ligand_efficiency_sa>  (1) 
-0.32281796780621047

>  <r_i_glide_lipo>  (1) 
-1.3153729527431888

>  <r_i_glide_metal>  (1) 
-0

>  <r_i_glide_rewards>  (1) 
-1.0620474981579029

>  <r_lp_Energy>  (1) 
52.707561999999996

>  <r_lp_tautomer_probability>  (1) 
1

>  <s_epik_cmdline>  (1) 
J2VwaWtfcHl0aG9uJywgJy1waHQnLCAnMS4wJywgJy1waCcsICc3LjQnLCAnLXRuJywgJzgnLCAnLW1hJywgJzUwMCcsICctaW1hZScsICc8aW5maWxlLm1hZT4nLCAnLW9tYWUnLCAnPG91dGZpbGUubWFlPic=

>  <s_epik_input>  (1) 
Tz1DKFtDSDNdKVtDSDJdW0NAQEhdKFtDSDJdW0NIM10pW0NAQEhdKFtDSDJdL1tDSF09W0NIXVwxKU4oW0NIM10pW0NIMl1DKEMyPU8pPUMxW0NIXT1DKFtDQEhdMjMpQz00QyhTMyk9W0NIXVtDQEhdKFtPSF0pQyhGKShGKVtDSF00

>  <s_glide_docking_method>  (1) 
confgen

>  <s_i_glide_gridfile>  (1) 
gpcr_drd2_6luq_protein_autoprepared_prepared

>  <s_lp_Force_Field>  (1) 
S-OPLS

>  <s_lp_Variant>  (1) 
DiffSBDD_80_num_sample_100-1

>  <s_m_source_file>  (1) 
generated__ligand_DiffSBDD_2026-05-06_prepared.sdf

>  <GenAI_Model>  (1) 
DiffSBDD

>  <Protein>  (1) 
generic_title2

$$$$
DiffSBDD_28_num_sample_100
     RDKit          3D

  0  0  0  0  0  0  0  0  0  0999 V3000
M  V30 BEGIN CTAB
M  V30 COUNTS 42 43 0 0 1
M  V30 BEGIN ATOM
M  V30 1 C 11.435480 8.911999 -3.955912 0
M  V30 2 C 7.991019 5.889089 -12.689719 0
M  V30 3 C 11.036437 7.753427 -4.891581 0
M  V30 4 N 10.723928 7.570961 -8.735018 0
M  V30 5 C 12.736772 10.007604 -5.784018 0
M  V30 6 C 10.206606 6.775747 -9.600960 0
M  V30 7 C 11.972813 9.126041 -6.746782 0
M  V30 8 O 8.878095 4.870153 -10.127685 0
M  V30 9 C 9.383414 7.802981 -11.745952 0
M  V30 10 C 7.071145 8.162732 -12.291706 0
M  V30 11 C 10.468627 6.970049 -11.075119 0
M  V30 12 C 7.589065 6.035016 -14.169123 0
M  V30 13 C 9.688901 6.209078 -7.075444 0
M  V30 14 N 9.036654 5.368758 -7.892352 0 CHG=-1
M  V30 15 N 8.054610 7.154371 -11.891605 0 CFG=1 CHG=1
M  V30 16 C 12.800553 9.432836 -4.357080 0
M  V30 17 C 9.299154 5.568964 -9.211706 0
M  V30 18 C 10.515079 7.279689 -7.378908 0
M  V30 19 C 11.191602 8.091025 -6.368332 0
M  V30 20 H 10.715401 9.732893 -4.016954 0
M  V30 21 H 11.454370 8.575516 -2.919204 0
M  V30 22 H 8.928525 5.338319 -12.644331 0
M  V30 23 H 7.255857 5.244643 -12.202692 0
M  V30 24 H 10.022222 7.436405 -4.691899 0
M  V30 25 H 11.669037 6.887191 -4.691159 0
M  V30 26 H 13.744982 10.161377 -6.169314 0
M  V30 27 H 12.232682 10.971679 -5.793410 0
M  V30 28 H 12.085199 9.361557 -7.793926 0
M  V30 29 H 9.247192 8.701698 -11.144088 0
M  V30 30 H 9.753701 8.156642 -12.691759 0
M  V30 31 H 7.435090 8.569014 -13.237566 0
M  V30 32 H 6.072950 7.736926 -12.402887 0
M  V30 33 H 7.018466 8.969793 -11.558293 0
M  V30 34 H 11.415694 7.499999 -11.168692 0
M  V30 35 H 10.631183 6.022661 -11.582475 0
M  V30 36 H 7.673903 5.071675 -14.672348 0
M  V30 37 H 6.555939 6.366444 -14.287202 0
M  V30 38 H 8.234775 6.730174 -14.699009 0
M  V30 39 H 9.552468 5.984430 -6.002908 0
M  V30 40 H 13.158934 10.168980 -3.643751 0
M  V30 41 H 13.502717 8.608461 -4.291150 0
M  V30 42 H 7.781668 6.908843 -10.940559 0
M  V30 END ATOM
M  V30 BEGIN BOND
M  V30 1 1 3 1
M  V30 2 2 6 4
M  V30 3 1 7 5
M  V30 4 1 11 6
M  V30 5 1 11 9
M  V30 6 1 12 2
M  V30 7 1 14 13
M  V30 8 1 15 2
M  V30 9 1 15 9
M  V30 10 1 15 10
M  V30 11 1 16 1
M  V30 12 1 16 5
M  V30 13 1 17 6
M  V30 14 2 17 8
M  V30 15 1 17 14
M  V30 16 1 18 4
M  V30 17 2 18 13
M  V30 18 1 19 3
M  V30 19 2 19 7
M  V30 20 1 19 18
M  V30 21 1 20 1
M  V30 22 1 21 1
M  V30 23 1 22 2
M  V30 24 1 23 2
M  V30 25 1 24 3
M  V30 26 1 25 3
M  V30 27 1 26 5
M  V30 28 1 27 5
M  V30 29 1 28 7
M  V30 30 1 29 9
M  V30 31 1 30 9
M  V30 32 1 31 10
M  V30 33 1 32 10
M  V30 34 1 33 10
M  V30 35 1 34 11
M  V30 36 1 35 11
M  V30 37 1 36 12
M  V30 38 1 37 12
M  V30 39 1 38 12
M  V30 40 1 39 13
M  V30 41 1 40 16
M  V30 42 1 41 16
M  V30 43 1 15 42 CFG=1
M  V30 END BOND
M  V30 END CTAB
M  END
>  <i_epik_Tot_Q>  (1) 
0

>  <i_epik_Tot_abs_Q>  (1) 
2

>  <i_i_glide_confnum>  (1) 
66

>  <i_i_glide_lignum>  (1) 
49

>  <i_i_glide_posenum>  (1) 
244

>  <i_i_glide_rotatable_bonds>  (1) 
5

>  <i_lp_mmshare_version>  (1) 
72125

>  <i_m_source_file_index>  (1) 
29

>  <i_f3d_flags>  (1) 
0

>  <num_sample>  (1) 
100

>  <b_lp_Chiralities_Consistent>  (1) 
1

>  <r_epik_Charging_Adjusted_Penalty>  (1) 
1.2889852773217638

>  <r_epik_Ionization_Penalty>  (1) 
1.2889869126975093

>  <r_epik_Ionization_Penalty_Charging>  (1) 
0.026956894772998535

>  <r_epik_Ionization_Penalty_Neutral>  (1) 
1.2620300179245107

>  <r_epik_State_Penalty>  (1) 
1.2620283825487653

>  <r_glide_ring_energy>  (1) 
0.00030344837723431068

>  <r_i_docking_score>  (1) 
-3.1694864326130308

>  <r_i_glide_ecoul>  (1) 
-3.2608063615787639

>  <r_i_glide_eff_state_penalty>  (1) 
1.2620283825487653

>  <r_i_glide_einternal>  (1) 
2.8378991223609207

>  <r_i_glide_emodel>  (1) 
-30.695740238077704

>  <r_i_glide_emodel_strain>  (1) 
0.85177901894541463

>  <r_i_glide_energy>  (1) 
-23.414499024557649

>  <r_i_glide_erotb>  (1) 
1.0375715866235848

>  <r_i_glide_esite>  (1) 
-0.098928316453730028

>  <r_i_glide_evdw>  (1) 
-20.153692662978884

>  <r_i_glide_gscore>  (1) 
-4.4315148151617958

>  <r_i_glide_gscore_strain>  (1) 
0

>  <r_i_glide_hbond>  (1) 
-0.14173275136234553

>  <r_i_glide_ligand_efficiency>  (1) 
-0.16681507540068582

>  <r_i_glide_ligand_efficiency_ln>  (1) 
-0.80353288499416042

>  <r_i_glide_ligand_efficiency_sa>  (1) 
-0.44512962223086566

>  <r_i_glide_lipo>  (1) 
-1.5320361202787838

>  <r_i_glide_metal>  (1) 
-0

>  <r_i_glide_rewards>  (1) 
-2.1995836263047628

>  <r_lp_Energy>  (1) 
33.608792999999999

>  <s_epik_cmdline>  (1) 
J2VwaWtfcHl0aG9uJywgJy1waHQnLCAnMS4wJywgJy1waCcsICc3LjQnLCAnLXRuJywgJzgnLCAnLW1hJywgJzUwMCcsICctaW1hZScsICc8aW5maWxlLm1hZT4nLCAnLW9tYWUnLCAnPG91dGZpbGUubWFlPic=

>  <s_epik_input>  (1) 
W0NIMl0xW0NIMl1bQ0gyXVtDSDJdW0NIXT1DMWMoW2NIXVtuSF1jMj1PKW5jMltDSDJdW0NIMl1OKFtDSDNdKVtDSDJdW0NIM10=

>  <s_glide_docking_method>  (1) 
confgen

>  <s_i_glide_gridfile>  (1) 
gpcr_drd2_6luq_protein_autoprepared_prepared

>  <s_lp_Force_Field>  (1) 
S-OPLS

>  <s_lp_Variant>  (1) 
DiffSBDD_28_num_sample_100-3

>  <s_m_source_file>  (1) 
generated__ligand_DiffSBDD_2026-05-06_prepared.sdf

>  <GenAI_Model>  (1) 
DiffSBDD

>  <Protein>  (1) 
generic_title2

$$$$
DiffSBDD_3_num_sample_100
     RDKit          3D

  0  0  0  0  0  0  0  0  0  0999 V3000
M  V30 BEGIN CTAB
M  V30 COUNTS 43 44 0 0 1
M  V30 BEGIN ATOM
M  V30 1 C 9.253609 6.150819 -8.572644 0
M  V30 2 O 11.117768 8.540323 -5.546930 0
M  V30 3 C 8.938703 4.670318 -13.192421 0
M  V30 4 O 12.204312 8.969302 -9.484644 0 CHG=-1
M  V30 5 C 9.167760 5.919799 -12.305830 0
M  V30 6 C 9.834847 6.911353 -7.539488 0
M  V30 7 C 8.203160 5.119476 -8.240017 0
M  V30 8 C 8.039014 3.526547 -12.680063 0
M  V30 9 C 5.588063 4.320637 -13.162260 0
M  V30 10 O 9.075338 5.579636 -10.917155 0
M  V30 11 C 5.760041 6.938819 -13.101145 0
M  V30 12 C 10.824423 7.868286 -7.835646 0
M  V30 13 C 11.231889 8.066825 -9.180170 0
M  V30 14 C 8.305893 7.156752 -12.674256 0
M  V30 15 C 6.887084 7.201355 -12.097287 0
M  V30 16 C 6.639422 3.867713 -12.137523 0
M  V30 17 C 9.649027 6.351476 -9.915638 0
M  V30 18 C 10.637767 7.322289 -10.213110 0
M  V30 19 C 11.434837 8.661734 -6.732007 0
M  V30 20 C 5.821520 5.638981 -13.923327 0
M  V30 21 H 8.683443 4.960643 -14.207849 0
M  V30 22 H 9.909760 4.199975 -13.315919 0
M  V30 23 H 10.194563 6.177963 -12.554795 0
M  V30 24 H 9.522715 6.754886 -6.516761 0
M  V30 25 H 7.461494 5.026634 -9.033457 0
M  V30 26 H 8.698969 4.169301 -8.092244 0
M  V30 27 H 7.680856 5.369295 -7.317096 0
M  V30 28 H 7.939001 2.782004 -13.470217 0
M  V30 29 H 8.596000 3.020722 -11.891673 0
M  V30 30 H 5.473219 3.521227 -13.891668 0
M  V30 31 H 4.634839 4.380825 -12.644352 0
M  V30 32 H 5.720830 7.769301 -13.805334 0
M  V30 33 H 4.832137 6.988450 -12.541985 0
M  V30 34 H 8.829341 8.042374 -12.312518 0
M  V30 35 H 8.234841 7.284173 -13.752993 0
M  V30 36 H 6.724683 8.209278 -11.713992 0
M  V30 37 H 6.791207 6.569300 -11.219499 0
M  V30 38 H 6.234837 2.956162 -11.699972 0
M  V30 39 H 6.704005 4.536561 -11.288662 0
M  V30 40 H 10.957361 7.485189 -11.226643 0
M  V30 41 H 12.196086 9.371435 -7.052824 0
M  V30 42 H 6.726288 5.602119 -14.518877 0
M  V30 43 H 5.034678 5.710256 -14.672753 0
M  V30 END ATOM
M  V30 BEGIN BOND
M  V30 1 1 5 3
M  V30 2 2 6 1
M  V30 3 1 7 1
M  V30 4 1 8 3
M  V30 5 1 10 5
M  V30 6 1 12 6
M  V30 7 1 13 4
M  V30 8 2 13 12
M  V30 9 1 14 5
M  V30 10 1 15 11
M  V30 11 1 15 14
M  V30 12 1 16 8
M  V30 13 1 16 9
M  V30 14 1 17 1
M  V30 15 1 17 10
M  V30 16 1 18 13
M  V30 17 2 18 17
M  V30 18 2 19 2
M  V30 19 1 19 12
M  V30 20 1 20 9
M  V30 21 1 20 11
M  V30 22 1 21 3
M  V30 23 1 22 3
M  V30 24 1 23 5
M  V30 25 1 24 6
M  V30 26 1 25 7
M  V30 27 1 26 7
M  V30 28 1 27 7
M  V30 29 1 28 8
M  V30 30 1 29 8
M  V30 31 1 30 9
M  V30 32 1 31 9
M  V30 33 1 32 11
M  V30 34 1 33 11
M  V30 35 1 34 14
M  V30 36 1 35 14
M  V30 37 1 36 15
M  V30 38 1 37 15
M  V30 39 1 38 16
M  V30 40 1 39 16
M  V30 41 1 40 18
M  V30 42 1 41 19
M  V30 43 1 42 20
M  V30 44 1 43 20
M  V30 END BOND
M  V30 END CTAB
M  END
>  <i_epik_Tot_Q>  (1) 
-1

>  <i_epik_Tot_abs_Q>  (1) 
1

>  <i_i_glide_confnum>  (1) 
109

>  <i_i_glide_lignum>  (1) 
6

>  <i_i_glide_posenum>  (1) 
237

>  <i_i_glide_rotatable_bonds>  (1) 
3

>  <i_lp_mmshare_version>  (1) 
72125

>  <i_m_source_file_index>  (1) 
4

>  <i_f3d_flags>  (1) 
0

>  <num_sample>  (1) 
100

>  <b_lp_Chiralities_Consistent>  (1) 
1

>  <r_epik_Charging_Adjusted_Penalty>  (1) 
2.3608621275216617

>  <r_epik_Ionization_Penalty>  (1) 
1.1804310637608308

>  <r_epik_Ionization_Penalty_Charging>  (1) 
1.1804310637608308

>  <r_epik_Ionization_Penalty_Neutral>  (1) 
0

>  <r_epik_State_Penalty>  (1) 
1.1804310637608308

>  <r_glide_ring_energy>  (1) 
1.7092448346240949

>  <r_i_docking_score>  (1) 
-3.1601528589639596

>  <r_i_glide_ecoul>  (1) 
0.74503819228954105

>  <r_i_glide_eff_state_penalty>  (1) 
1.1804310637608308

>  <r_i_glide_einternal>  (1) 
0.2533800854750945

>  <r_i_glide_emodel>  (1) 
-31.758168608965921

>  <r_i_glide_emodel_strain>  (1) 
0.089575486603195031

>  <r_i_glide_energy>  (1) 
-26.611275670958968

>  <r_i_glide_erotb>  (1) 
0.47404219121644042

>  <r_i_glide_esite>  (1) 
0

>  <r_i_glide_evdw>  (1) 
-27.356313863248509

>  <r_i_glide_gscore>  (1) 
-4.3405839227247904

>  <r_i_glide_gscore_strain>  (1) 
0

>  <r_i_glide_hbond>  (1) 
0

>  <r_i_glide_ligand_efficiency>  (1) 
-0.15800764294819797

>  <r_i_glide_ligand_efficiency_ln>  (1) 
-0.79088203178166694

>  <r_i_glide_ligand_efficiency_sa>  (1) 
-0.42889872957522657

>  <r_i_glide_lipo>  (1) 
-1.1173352448741749

>  <r_i_glide_metal>  (1) 
-0

>  <r_i_glide_rewards>  (1) 
-2.4412309047480618

>  <r_lp_Energy>  (1) 
27.878793999999999

>  <s_epik_cmdline>  (1) 
J2VwaWtfcHl0aG9uJywgJy1waHQnLCAnMS4wJywgJy1waCcsICc3LjQnLCAnLXRuJywgJzgnLCAnLW1hJywgJzUwMCcsICctaW1hZScsICc8aW5maWxlLm1hZT4nLCAnLW9tYWUnLCAnPG91dGZpbGUubWFlPic=

>  <s_epik_input>  (1) 
W0NIM11jMVtjSF1jKFtDSF09TyljKFtPSF0pW2NIXWMxT1tDSF0yW0NIMl1bQ0gyXVtDSDJdW0NIMl1bQ0gyXVtDSDJdW0NIMl1bQ0gyXTI=

>  <s_glide_docking_method>  (1) 
confgen

>  <s_i_glide_gridfile>  (1) 
gpcr_drd2_6luq_protein_autoprepared_prepared

>  <s_lp_Force_Field>  (1) 
S-OPLS

>  <s_lp_Variant>  (1) 
DiffSBDD_3_num_sample_100-2

>  <s_m_source_file>  (1) 
generated__ligand_DiffSBDD_2026-05-06_prepared.sdf

>  <GenAI_Model>  (1) 
DiffSBDD

>  <Protein>  (1) 
generic_title2

$$$$
DiffSBDD_8_num_sample_100
     RDKit          3D

  0  0  0  0  0  0  0  0  0  0999 V3000
M  V30 BEGIN CTAB
M  V30 COUNTS 67 70 0 0 1
M  V30 BEGIN ATOM
M  V30 1 C 7.082318 4.858496 -13.815668 0
M  V30 2 C 10.886461 7.537423 -9.410012 0
M  V30 3 C 8.537747 3.412615 -17.682040 0 CFG=1
M  V30 4 C 9.905477 4.212004 -20.675584 0
M  V30 5 O 6.315932 2.969300 -12.523543 0
M  V30 6 N 9.935392 7.769302 -11.643054 0
M  V30 7 C 9.063991 3.297656 -20.151043 0
M  V30 8 O 9.368271 4.813474 -13.320616 0
M  V30 9 C 6.776887 4.300953 -12.419538 0 CFG=1
M  V30 10 C 8.463473 4.410499 -14.332919 0 CFG=2
M  V30 11 C 7.938386 5.740942 -17.970178 0
M  V30 12 C 9.954639 7.143538 -10.402740 0
M  V30 13 O 10.234829 4.966989 -15.891667 0
M  V30 14 C 10.085776 0.606148 -18.078413 0
M  V30 15 C 8.187776 2.056012 -17.018816 0
M  V30 16 O 9.124052 1.976886 -20.516711 0
M  V30 17 C 7.980151 3.588212 -19.119392 0 CFG=2
M  V30 18 O 9.130255 3.924515 -12.130547 0
M  V30 19 C 8.847888 5.112632 -15.651074 0 CFG=1
M  V30 20 C 7.981210 4.406600 -11.455880 0 CFG=1
M  V30 21 O 8.116247 -0.318615 -17.052746 0
M  V30 22 C 7.388273 5.008861 -19.190389 0
M  V30 23 C 10.419453 0.201493 -19.529364 0
M  V30 24 C 11.895945 8.639710 -9.691441 0
M  V30 25 C 10.876703 6.902336 -8.152839 0
M  V30 26 C 10.416423 1.376991 -20.520978 0
M  V30 27 C 9.034839 5.476478 -8.879061 0
M  V30 28 O 8.113821 5.769287 -11.102540 0
M  V30 29 C 9.952634 5.873195 -7.889908 0
M  V30 30 C 8.035069 4.653840 -16.897599 0 CFG=2
M  V30 31 C 8.568615 0.785173 -17.809975 0 CFG=2
M  V30 32 C 9.034839 6.115588 -10.137932 0
M  V30 33 H 7.068526 5.947654 -13.755218 0
M  V30 34 H 6.283746 4.584412 -14.504546 0
M  V30 35 H 9.622195 3.482319 -17.751403 0
M  V30 36 H 9.856433 5.249135 -20.379997 0
M  V30 37 H 10.649913 3.931797 -21.405719 0
M  V30 38 H 7.041113 2.420633 -12.784711 0
M  V30 39 H 9.150035 7.619281 -12.259907 0
M  V30 40 H 10.417220 8.644619 -11.763221 0
M  V30 41 H 5.942615 4.861894 -11.995399 0
M  V30 42 H 8.505067 3.330139 -14.426662 0
M  V30 43 H 8.928087 6.144206 -18.190111 0
M  V30 44 H 7.297528 6.569300 -17.668548 0
M  V30 45 H 10.687942 4.980959 -15.056592 0
M  V30 46 H 10.638667 1.510673 -17.828401 0
M  V30 47 H 10.491066 -0.151224 -17.406347 0
M  V30 48 H 7.115987 2.032970 -16.815542 0
M  V30 49 H 8.679374 1.990625 -16.052283 0
M  V30 50 H 7.163907 2.886545 -19.296980 0
M  V30 51 H 8.662336 6.169302 -15.491973 0
M  V30 52 H 7.781586 3.808893 -10.572736 0
M  V30 53 H 8.234856 -1.111505 -17.553377 0
M  V30 54 H 7.586741 5.534017 -20.124677 0
M  V30 55 H 6.303022 4.943392 -19.099264 0
M  V30 56 H 11.419246 -0.230698 -19.544395 0
M  V30 57 H 9.742405 -0.583967 -19.866754 0
M  V30 58 H 12.684704 8.645322 -8.938775 0
M  V30 59 H 12.375700 8.493905 -10.659426 0
M  V30 60 H 11.420099 9.618541 -9.676224 0
M  V30 61 H 11.580438 7.201038 -7.390280 0
M  V30 62 H 11.223471 2.057027 -20.244205 0
M  V30 63 H 10.635245 1.020852 -21.527708 0
M  V30 64 H 8.321373 4.695826 -8.666089 0
M  V30 65 H 9.946060 5.389852 -6.926370 0
M  V30 66 H 7.009307 4.455411 -16.591404 0
M  V30 67 H 8.003760 0.760903 -18.740636 0
M  V30 END ATOM
M  V30 BEGIN BOND
M  V30 1 2 7 4
M  V30 2 1 9 1
M  V30 3 1 9 5
M  V30 4 1 10 1
M  V30 5 1 10 8
M  V30 6 2 12 2
M  V30 7 1 12 6
M  V30 8 1 15 3
M  V30 9 1 16 7
M  V30 10 1 17 3
M  V30 11 1 17 7
M  V30 12 1 18 8
M  V30 13 1 19 10
M  V30 14 1 19 13
M  V30 15 1 20 9
M  V30 16 1 20 18
M  V30 17 1 22 11
M  V30 18 1 22 17
M  V30 19 1 23 14
M  V30 20 1 24 2
M  V30 21 1 25 2
M  V30 22 1 26 16
M  V30 23 1 26 23
M  V30 24 1 28 20
M  V30 25 2 29 25
M  V30 26 1 29 27
M  V30 27 1 30 3
M  V30 28 1 30 11
M  V30 29 1 30 19
M  V30 30 1 31 14
M  V30 31 1 31 15
M  V30 32 1 31 21
M  V30 33 1 32 12
M  V30 34 2 32 27
M  V30 35 1 32 28
M  V30 36 1 33 1
M  V30 37 1 34 1
M  V30 38 1 3 35 CFG=3
M  V30 39 1 36 4
M  V30 40 1 37 4
M  V30 41 1 38 5
M  V30 42 1 39 6
M  V30 43 1 40 6
M  V30 44 1 9 41 CFG=1
M  V30 45 1 10 42 CFG=3
M  V30 46 1 43 11
M  V30 47 1 44 11
M  V30 48 1 45 13
M  V30 49 1 46 14
M  V30 50 1 47 14
M  V30 51 1 48 15
M  V30 52 1 49 15
M  V30 53 1 17 50 CFG=3
M  V30 54 1 19 51 CFG=1
M  V30 55 1 20 52 CFG=1
M  V30 56 1 53 21
M  V30 57 1 54 22
M  V30 58 1 55 22
M  V30 59 1 56 23
M  V30 60 1 57 23
M  V30 61 1 58 24
M  V30 62 1 59 24
M  V30 63 1 60 24
M  V30 64 1 61 25
M  V30 65 1 62 26
M  V30 66 1 63 26
M  V30 67 1 64 27
M  V30 68 1 65 29
M  V30 69 1 30 66 CFG=1
M  V30 70 1 31 67 CFG=3
M  V30 END BOND
M  V30 END CTAB
M  END
>  <i_epik_Tot_Q>  (1) 
0

>  <i_epik_Tot_abs_Q>  (1) 
0

>  <i_i_glide_confnum>  (1) 
40

>  <i_i_glide_lignum>  (1) 
14

>  <i_i_glide_posenum>  (1) 
303

>  <i_i_glide_rotatable_bonds>  (1) 
7

>  <i_lp_mmshare_version>  (1) 
72125

>  <i_m_source_file_index>  (1) 
9

>  <i_f3d_flags>  (1) 
0

>  <num_sample>  (1) 
100

>  <b_lp_Chiralities_Consistent>  (1) 
1

>  <r_epik_Charging_Adjusted_Penalty>  (1) 
0

>  <r_epik_Ionization_Penalty>  (1) 
0.0024140143781195595

>  <r_epik_Ionization_Penalty_Charging>  (1) 
0

>  <r_epik_Ionization_Penalty_Neutral>  (1) 
0.0024140143781195595

>  <r_epik_State_Penalty>  (1) 
-0

>  <r_glide_ring_energy>  (1) 
0

>  <r_i_docking_score>  (1) 
-3.1514033488961761

>  <r_i_glide_ecoul>  (1) 
0.59111692797529058

>  <r_i_glide_eff_state_penalty>  (1) 
-0

>  <r_i_glide_einternal>  (1) 
9.1935322785646889

>  <r_i_glide_emodel>  (1) 
-28.250864449836861

>  <r_i_glide_emodel_strain>  (1) 
0.97039747483994176

>  <r_i_glide_energy>  (1) 
-27.805818574558156

>  <r_i_glide_erotb>  (1) 
0.39668203270713775

>  <r_i_glide_esite>  (1) 
-0.041685730226906331

>  <r_i_glide_evdw>  (1) 
-28.396935502533445

>  <r_i_glide_gscore>  (1) 
-3.1514033488961761

>  <r_i_glide_gscore_strain>  (1) 
0

>  <r_i_glide_hbond>  (1) 
-0.13768486633891955

>  <r_i_glide_ligand_efficiency>  (1) 
-0.098481354653005504

>  <r_i_glide_ligand_efficiency_ln>  (1) 
-0.70568511382870858

>  <r_i_glide_ligand_efficiency_sa>  (1) 
-0.31265881195086859

>  <r_i_glide_lipo>  (1) 
-1.240007779409968

>  <r_i_glide_metal>  (1) 
-0

>  <r_i_glide_rewards>  (1) 
-0.79752776969714168

>  <r_lp_Energy>  (1) 
35.494580999999997

>  <r_lp_tautomer_probability>  (1) 
1

>  <s_epik_Chemistry_Notes>  (1) 
This compound contains an acetal/aminal-like group ( X-CH(R)-Y where X, Y are N, S, or O) that may be acid/base labile, releasing an aldehyde.

>  <s_epik_cmdline>  (1) 
J2VwaWtfcHl0aG9uJywgJy1waHQnLCAnMS4wJywgJy1waCcsICc3LjQnLCAnLXRuJywgJzgnLCAnLW1hJywgJzUwMCcsICctaW1hZScsICc8aW5maWxlLm1hZT4nLCAnLW9tYWUnLCAnPG91dGZpbGUubWFlPic=

>  <s_epik_input>  (1) 
W0NIM11jMWMoW05IMl0pYyhbY0hdW2NIXVtjSF0xKU9bQ0BASF0yT09bQ0BASF0oW0NIMl1bQ0BIXTJbT0hdKVtDQEBIXShbT0hdKVtDQEhdM1tDSDJdW0NIMl1bQ0BIXShbQ0BASF0zNClDKD1bQ0gyXSlPW0NIMl1bQ0gyXVtDSDJdW0NASF0oW0NIMl00KVtPSF0=

>  <s_glide_docking_method>  (1) 
confgen

>  <s_i_glide_gridfile>  (1) 
gpcr_drd2_6luq_protein_autoprepared_prepared

>  <s_lp_Force_Field>  (1) 
S-OPLS

>  <s_lp_Variant>  (1) 
DiffSBDD_8_num_sample_100-1

>  <s_m_source_file>  (1) 
generated__ligand_DiffSBDD_2026-05-06_prepared.sdf

>  <GenAI_Model>  (1) 
DiffSBDD

>  <Protein>  (1) 
generic_title2

$$$$
DiffSBDD_67_num_sample_100
     RDKit          3D

  0  0  0  0  0  0  0  0  0  0999 V3000
M  V30 BEGIN CTAB
M  V30 COUNTS 79 83 0 0 1
M  V30 BEGIN ATOM
M  V30 1 C 9.206195 7.755834 -10.307914 0 CFG=2
M  V30 2 C 9.220534 6.094600 -8.281687 0 CFG=1
M  V30 3 C 8.968193 4.594015 -8.407189 0
M  V30 4 C 9.917950 6.507019 -6.957441 0 CFG=1
M  V30 5 C 8.485543 4.643035 -13.441180 0
M  V30 6 C 7.628242 6.366509 -11.770150 0
M  V30 7 C 6.762303 2.660068 -20.366419 0
M  V30 8 C 7.875629 0.868154 -19.134848 0
M  V30 9 C 11.957167 7.989019 -7.607527 0 CFG=2
M  V30 10 C 9.684842 3.389274 -18.537784 0
M  V30 11 C 8.088400 3.563023 -14.465857 0
M  V30 12 C 6.228698 1.714584 -21.258831 0
M  V30 13 C 7.738160 3.020128 -16.856317 0
M  V30 14 O 10.407993 3.234986 -17.528315 0 CHG=-1
M  V30 15 F 7.616012 -1.393683 -19.871425 0
M  V30 16 C 6.666908 5.842087 -15.489140 0
M  V30 17 O 10.083216 3.638391 -19.696330 0
M  V30 18 C 11.452756 6.633806 -7.021775 0
M  V30 19 C 10.873854 8.703453 -8.403892 0 CFG=2
M  V30 20 C 7.587012 2.241233 -19.299601 0
M  V30 21 C 9.718435 8.969324 -7.383929 0
M  V30 22 N 6.846437 6.470371 -14.175829 0
M  V30 23 C 7.995690 5.411639 -16.122688 0
M  V30 24 N 8.320308 3.981429 -15.876201 0 CFG=1 CHG=1
M  V30 25 C 9.358980 7.816350 -6.442905 0
M  V30 26 C 7.316306 5.589659 -13.085030 0 CFG=1
M  V30 27 C 8.237025 8.748774 -12.358612 0
M  V30 28 C 8.160093 3.270529 -18.332210 0 CFG=2
M  V30 29 O 13.099206 7.904383 -8.424690 0
M  V30 30 C 10.569767 7.919645 -9.696378 0 CFG=1
M  V30 31 C 9.865655 6.606438 -9.556385 0 CFG=2
M  V30 32 O 5.435065 2.125687 -22.288176 0
M  V30 33 C 6.514491 0.345536 -21.089738 0
M  V30 34 C 5.531160 6.997383 -13.829118 0
M  V30 35 C 7.337870 -0.076921 -20.030119 0
M  V30 36 C 8.755770 7.451818 -11.745942 0 CFG=1
M  V30 37 H 8.634838 8.557242 -9.855079 0
M  V30 38 H 8.237600 6.541034 -8.252032 0
M  V30 39 H 9.897781 4.033263 -8.508595 0
M  V30 40 H 8.395883 4.222046 -7.564256 0
M  V30 41 H 8.371633 4.397052 -9.293679 0
M  V30 42 H 9.676384 5.768627 -6.194373 0
M  V30 43 H 9.385354 5.183570 -13.733819 0
M  V30 44 H 8.763640 4.118463 -12.527084 0
M  V30 45 H 6.706142 6.784111 -11.372802 0
M  V30 46 H 7.872887 5.604669 -11.035960 0
M  V30 47 H 6.540575 3.709193 -20.496622 0
M  V30 48 H 8.507637 0.539751 -18.323003 0
M  V30 49 H 4.928847 1.416568 -22.664292 0
M  V30 50 H 12.223485 8.630490 -6.769926 0
M  V30 51 H 7.038932 3.293366 -14.325446 0
M  V30 52 H 8.634273 2.646106 -14.264363 0
M  V30 53 H 6.650615 3.004393 -16.779223 0
M  V30 54 H 8.070802 2.022123 -16.566243 0
M  V30 55 H 6.226463 6.580739 -16.162051 0
M  V30 56 H 5.956008 5.016482 -15.447950 0
M  V30 57 H 11.858184 6.513208 -6.016178 0
M  V30 58 H 11.786983 5.770542 -7.557746 0
M  V30 59 H 11.275436 9.662884 -8.734299 0
M  V30 60 H 8.821145 9.369588 -7.852181 0
M  V30 61 H 10.077206 9.735764 -6.691071 0
M  V30 62 H 8.812979 6.025429 -15.748019 0
M  V30 63 H 7.977984 5.650927 -17.181961 0
M  V30 64 H 8.283267 7.757797 -6.298479 0
M  V30 65 H 9.799227 7.988816 -5.462114 0
M  V30 66 H 6.474572 4.932752 -12.855108 0
M  V30 67 H 7.399346 9.127592 -11.772401 0
M  V30 68 H 9.024769 9.489639 -12.356004 0
M  V30 69 H 7.880645 8.630012 -13.378363 0
M  V30 70 H 7.742157 4.220921 -18.657356 0
M  V30 71 H 13.269940 8.760100 -8.792844 0
M  V30 72 H 11.366899 7.986590 -10.433696 0
M  V30 73 H 10.232255 5.812761 -10.195790 0
M  V30 74 H 6.103654 -0.379491 -21.776802 0
M  V30 75 H 5.554030 7.612838 -12.935111 0
M  V30 76 H 5.129625 7.631023 -14.620973 0
M  V30 77 H 4.838433 6.176634 -13.653894 0
M  V30 78 H 9.616931 7.089509 -12.304479 0
M  V30 79 H 9.319253 3.901141 -16.057180 0
M  V30 END ATOM
M  V30 BEGIN BOND
M  V30 1 1 3 2
M  V30 2 1 4 2
M  V30 3 1 11 5
M  V30 4 2 12 7
M  V30 5 1 14 10
M  V30 6 2 17 10
M  V30 7 1 18 4
M  V30 8 1 18 9
M  V30 9 1 19 9
M  V30 10 1 20 7
M  V30 11 2 20 8
M  V30 12 1 21 19
M  V30 13 1 22 16
M  V30 14 1 23 16
M  V30 15 1 24 11
M  V30 16 1 24 13
M  V30 17 1 24 23
M  V30 18 1 25 4
M  V30 19 1 25 21
M  V30 20 1 26 5
M  V30 21 1 26 6
M  V30 22 1 26 22
M  V30 23 1 28 10
M  V30 24 1 28 13
M  V30 25 1 28 20
M  V30 26 1 29 9
M  V30 27 1 30 1
M  V30 28 1 30 19
M  V30 29 1 31 1
M  V30 30 1 31 2
M  V30 31 1 31 30
M  V30 32 1 32 12
M  V30 33 1 33 12
M  V30 34 1 34 22
M  V30 35 1 35 8
M  V30 36 1 35 15
M  V30 37 2 35 33
M  V30 38 1 36 1
M  V30 39 1 36 6
M  V30 40 1 36 27
M  V30 41 1 1 37 CFG=1
M  V30 42 1 2 38 CFG=1
M  V30 43 1 39 3
M  V30 44 1 40 3
M  V30 45 1 41 3
M  V30 46 1 4 42 CFG=1
M  V30 47 1 43 5
M  V30 48 1 44 5
M  V30 49 1 45 6
M  V30 50 1 46 6
M  V30 51 1 47 7
M  V30 52 1 48 8
M  V30 53 1 49 32
M  V30 54 1 9 50 CFG=1
M  V30 55 1 51 11
M  V30 56 1 52 11
M  V30 57 1 53 13
M  V30 58 1 54 13
M  V30 59 1 55 16
M  V30 60 1 56 16
M  V30 61 1 57 18
M  V30 62 1 58 18
M  V30 63 1 19 59 CFG=3
M  V30 64 1 60 21
M  V30 65 1 61 21
M  V30 66 1 62 23
M  V30 67 1 63 23
M  V30 68 1 64 25
M  V30 69 1 65 25
M  V30 70 1 26 66 CFG=1
M  V30 71 1 67 27
M  V30 72 1 68 27
M  V30 73 1 69 27
M  V30 74 1 28 70 CFG=3
M  V30 75 1 71 29
M  V30 76 1 30 72 CFG=3
M  V30 77 1 31 73 CFG=3
M  V30 78 1 74 33
M  V30 79 1 75 34
M  V30 80 1 76 34
M  V30 81 1 77 34
M  V30 82 1 36 78 CFG=3
M  V30 83 1 24 79 CFG=3
M  V30 END BOND
M  V30 END CTAB
M  END
>  <i_epik_Tot_Q>  (1) 
0

>  <i_epik_Tot_abs_Q>  (1) 
2

>  <i_i_glide_confnum>  (1) 
625

>  <i_i_glide_lignum>  (1) 
134

>  <i_i_glide_posenum>  (1) 
143

>  <i_i_glide_rotatable_bonds>  (1) 
9

>  <i_lp_mmshare_version>  (1) 
72125

>  <i_m_source_file_index>  (1) 
68

>  <i_f3d_flags>  (1) 
0

>  <num_sample>  (1) 
100

>  <b_lp_Chiralities_Consistent>  (1) 
1

>  <r_epik_Charging_Adjusted_Penalty>  (1) 
0.12241089881330544

>  <r_epik_Ionization_Penalty>  (1) 
0.01898901772236716

>  <r_epik_Ionization_Penalty_Charging>  (1) 
0.00080544074301080722

>  <r_epik_Ionization_Penalty_Neutral>  (1) 
0.018183576979356353

>  <r_epik_State_Penalty>  (1) 
0.12160545807029463

>  <r_glide_ring_energy>  (1) 
1.333213329150412

>  <r_i_docking_score>  (1) 
-3.1503613264778152

>  <r_i_glide_ecoul>  (1) 
-4.3776618469851005

>  <r_i_glide_eff_state_penalty>  (1) 
0.12160545807029463

>  <r_i_glide_einternal>  (1) 
14.630128114582352

>  <r_i_glide_emodel>  (1) 
-15.110604876413419

>  <r_i_glide_emodel_strain>  (1) 
3.4942219860447494

>  <r_i_glide_energy>  (1) 
-22.17327844017408

>  <r_i_glide_erotb>  (1) 
0.48522832276191719

>  <r_i_glide_esite>  (1) 
0

>  <r_i_glide_evdw>  (1) 
-17.795616593188981

>  <r_i_glide_gscore>  (1) 
-3.27196678454811

>  <r_i_glide_gscore_strain>  (1) 
0

>  <r_i_glide_hbond>  (1) 
-0.1707260956268177

>  <r_i_glide_ligand_efficiency>  (1) 
-0.087510036846605979

>  <r_i_glide_ligand_efficiency_ln>  (1) 
-0.68732372851042856

>  <r_i_glide_ligand_efficiency_sa>  (1) 
-0.28895177521558113

>  <r_i_glide_lipo>  (1) 
-1.2884979127836809

>  <r_i_glide_metal>  (1) 
-0

>  <r_i_glide_rewards>  (1) 
-0.75154099219231441

>  <r_lp_Energy>  (1) 
56.711821999999998

>  <r_lp_tautomer_probability>  (1) 
0.99999999999736477

>  <s_epik_cmdline>  (1) 
J2VwaWtfcHl0aG9uJywgJy1waHQnLCAnMS4wJywgJy1waCcsICc3LjQnLCAnLXRuJywgJzgnLCAnLW1hJywgJzUwMCcsICctaW1hZScsICc8aW5maWxlLm1hZT4nLCAnLW9tYWUnLCAnPG91dGZpbGUubWFlPic=

>  <s_epik_input>  (1) 
W0NIM11bQ0BASF0oW0NAQEhdMTIpW0NAQEhdM1tDQEhdKFtDQEhdKFtDQEBIXShbQ0gyXTEpW09IXSlbQ0gyXVtDSDJdMilbQ0BIXTNbQ0BIXShbQ0gzXSlbQ0gyXVtDQEBIXTRbQ0gyXVtDSDJdTihbQ0gyXVtDSDJdTjRbQ0gzXSlbQ0gyXVtDQEBIXShDKD1PKVtPSF0pQyg9W0NIXUM1PU8pW0NIMl1DKEYpPVtDSF01

>  <s_glide_docking_method>  (1) 
confgen

>  <s_i_glide_gridfile>  (1) 
gpcr_drd2_6luq_protein_autoprepared_prepared

>  <s_lp_Force_Field>  (1) 
S-OPLS

>  <s_lp_Variant>  (1) 
DiffSBDD_67_num_sample_100-2

>  <s_m_source_file>  (1) 
generated__ligand_DiffSBDD_2026-05-06_prepared.sdf

>  <GenAI_Model>  (1) 
DiffSBDD

>  <Protein>  (1) 
generic_title2

$$$$
DiffSBDD_80_num_sample_100
     RDKit          3D

  0  0  0  0  0  0  0  0  0  0999 V3000
M  V30 BEGIN CTAB
M  V30 COUNTS 57 60 0 0 1
M  V30 BEGIN ATOM
M  V30 1 C 6.418208 -1.475033 -22.518866 0
M  V30 2 C 8.489355 0.094543 -18.733342 0
M  V30 3 O 4.588482 -3.438329 -19.818112 0
M  V30 4 C 7.737035 3.614177 -17.056707 0
M  V30 5 C 5.492852 -2.701757 -19.431340 0
M  V30 6 C 7.884412 0.851225 -16.373054 0
M  V30 7 C 5.713994 -1.317578 -20.047559 0
M  V30 8 C 6.437612 -3.126735 -18.313086 0
M  V30 9 C 9.887072 -0.768483 -20.511158 0
M  V30 10 C 7.703478 0.114914 -21.028759 0 CFG=2
M  V30 11 C 7.191464 1.815885 -15.450986 0 CFG=2
M  V30 12 O 5.434949 5.930316 -12.002708 0 CHG=-1
M  V30 13 C 7.273963 4.153230 -14.727610 0
M  V30 14 C 6.862592 1.333332 -20.712402 0
M  V30 15 C 7.434839 3.245753 -15.802282 0
M  V30 16 C 7.090158 6.426233 -13.626497 0
M  V30 17 C 7.946258 2.633938 -18.130492 0
M  V30 18 F 6.201346 7.369302 -13.954488 0
M  V30 19 C 8.065832 1.268490 -17.801950 0
M  V30 20 C 5.685396 -2.798836 -22.772926 0
M  V30 21 C 7.280147 5.495601 -14.830490 0
M  V30 22 C 7.097056 3.513443 -13.491137 0
M  V30 23 C 6.896341 -1.234666 -21.065021 0 CFG=2
M  V30 24 O 8.234857 -0.244277 -15.946277 0
M  V30 25 S 7.235820 1.741627 -13.563310 0
M  V30 26 N 8.857959 0.197105 -20.138014 0
M  V30 27 F 8.234824 7.071892 -13.413535 0
M  V30 28 C 8.119988 3.174175 -19.497500 0
M  V30 29 C 7.691607 2.591818 -20.638445 0
M  V30 30 C 6.845363 4.184433 -12.347584 0
M  V30 31 C 6.698241 5.709348 -12.261791 0 CFG=2
M  V30 32 H 5.781800 -0.649417 -22.839238 0
M  V30 33 H 7.286702 -1.451671 -23.178390 0
M  V30 34 H 9.408325 -0.235164 -18.245422 0
M  V30 35 H 7.821677 -0.747838 -18.578466 0
M  V30 36 H 7.862923 4.659344 -17.285717 0
M  V30 37 H 4.789740 -0.979067 -20.515716 0
M  V30 38 H 5.867494 -0.660573 -19.196114 0
M  V30 39 H 7.465123 -3.170294 -18.673843 0
M  V30 40 H 6.159832 -4.111627 -17.936839 0
M  V30 41 H 6.391405 -2.420134 -17.483709 0
M  V30 42 H 10.119696 -0.696333 -21.574237 0
M  V30 43 H 9.598083 -1.795172 -20.290497 0
M  V30 44 H 10.806886 -0.558255 -19.966018 0
M  V30 45 H 8.121860 0.277567 -22.023154 0
M  V30 46 H 6.144467 1.650749 -15.689665 0
M  V30 47 H 6.115267 1.470521 -21.494430 0
M  V30 48 H 6.288405 1.245050 -19.793913 0
M  V30 49 H 5.538261 -2.956887 -23.839976 0
M  V30 50 H 4.695705 -2.798392 -22.317281 0
M  V30 51 H 6.246152 -3.649582 -22.385162 0
M  V30 52 H 7.414694 5.971140 -15.786775 0
M  V30 53 H 7.579441 -2.054649 -20.851594 0
M  V30 54 H 8.621187 4.127073 -19.590898 0
M  V30 55 H 7.885297 3.083737 -21.579827 0
M  V30 56 H 6.716905 3.639067 -11.427271 0
M  V30 57 H 7.457715 5.997023 -11.532479 0
M  V30 END ATOM
M  V30 BEGIN BOND
M  V30 1 2 5 3
M  V30 2 1 7 5
M  V30 3 1 8 5
M  V30 4 1 11 6
M  V30 5 1 14 10
M  V30 6 2 15 4
M  V30 7 1 15 11
M  V30 8 1 15 13
M  V30 9 1 17 4
M  V30 10 1 18 16
M  V30 11 1 19 2
M  V30 12 1 19 6
M  V30 13 2 19 17
M  V30 14 1 20 1
M  V30 15 2 21 13
M  V30 16 1 21 16
M  V30 17 1 22 13
M  V30 18 1 23 1
M  V30 19 1 23 7
M  V30 20 1 23 10
M  V30 21 2 24 6
M  V30 22 1 25 11
M  V30 23 1 25 22
M  V30 24 1 26 2
M  V30 25 1 26 9
M  V30 26 1 26 10
M  V30 27 1 27 16
M  V30 28 1 28 17
M  V30 29 1 29 14
M  V30 30 2 29 28
M  V30 31 2 30 22
M  V30 32 1 31 12
M  V30 33 1 31 16
M  V30 34 1 31 30
M  V30 35 1 32 1
M  V30 36 1 33 1
M  V30 37 1 34 2
M  V30 38 1 35 2
M  V30 39 1 36 4
M  V30 40 1 37 7
M  V30 41 1 38 7
M  V30 42 1 39 8
M  V30 43 1 40 8
M  V30 44 1 41 8
M  V30 45 1 42 9
M  V30 46 1 43 9
M  V30 47 1 44 9
M  V30 48 1 10 45 CFG=3
M  V30 49 1 11 46 CFG=3
M  V30 50 1 47 14
M  V30 51 1 48 14
M  V30 52 1 49 20
M  V30 53 1 50 20
M  V30 54 1 51 20
M  V30 55 1 52 21
M  V30 56 1 23 53 CFG=1
M  V30 57 1 54 28
M  V30 58 1 55 29
M  V30 59 1 56 30
M  V30 60 1 31 57 CFG=1
M  V30 END BOND
M  V30 END CTAB
M  END
>  <i_epik_Tot_Q>  (1) 
-1

>  <i_epik_Tot_abs_Q>  (1) 
1

>  <i_i_glide_confnum>  (1) 
3

>  <i_i_glide_lignum>  (1) 
163

>  <i_i_glide_posenum>  (1) 
82

>  <i_i_glide_rotatable_bonds>  (1) 
4

>  <i_lp_mmshare_version>  (1) 
72125

>  <i_m_source_file_index>  (1) 
81

>  <i_f3d_flags>  (1) 
0

>  <num_sample>  (1) 
100

>  <b_lp_Chiralities_Consistent>  (1) 
1

>  <r_epik_Charging_Adjusted_Penalty>  (1) 
8.7803366933407872e-06

>  <r_epik_Ionization_Penalty>  (1) 
0.00048743314384941063

>  <r_epik_Ionization_Penalty_Charging>  (1) 
8.7803366933407872e-06

>  <r_epik_Ionization_Penalty_Neutral>  (1) 
0.00047865280715606983

>  <r_epik_State_Penalty>  (1) 
-0

>  <r_glide_ring_energy>  (1) 
0

>  <r_i_docking_score>  (1) 
-3.144122184974484

>  <r_i_glide_ecoul>  (1) 
2.3614416421057376

>  <r_i_glide_eff_state_penalty>  (1) 
-0

>  <r_i_glide_einternal>  (1) 
3.0630443216132943

>  <r_i_glide_emodel>  (1) 
-28.40853660965826

>  <r_i_glide_emodel_strain>  (1) 
1.862759754975059

>  <r_i_glide_energy>  (1) 
-26.649186762256711

>  <r_i_glide_erotb>  (1) 
0.20077648214602295

>  <r_i_glide_esite>  (1) 
-0.0059811928105822703

>  <r_i_glide_evdw>  (1) 
-29.01062840436245

>  <r_i_glide_gscore>  (1) 
-3.144122184974484

>  <r_i_glide_gscore_strain>  (1) 
0

>  <r_i_glide_hbond>  (1) 
0

>  <r_i_glide_ligand_efficiency>  (1) 
-0.10142329628949949

>  <r_i_glide_ligand_efficiency_ln>  (1) 
-0.70909590848482495

>  <r_i_glide_ligand_efficiency_sa>  (1) 
-0.31860918066559352

>  <r_i_glide_lipo>  (1) 
-1.256183664371753

>  <r_i_glide_metal>  (1) 
-0

>  <r_i_glide_rewards>  (1) 
-0.98641863603590951

>  <r_lp_Energy>  (1) 
60.210590999999994

>  <r_lp_tautomer_probability>  (1) 
1

>  <s_epik_cmdline>  (1) 
J2VwaWtfcHl0aG9uJywgJy1waHQnLCAnMS4wJywgJy1waCcsICc3LjQnLCAnLXRuJywgJzgnLCAnLW1hJywgJzUwMCcsICctaW1hZScsICc8aW5maWxlLm1hZT4nLCAnLW9tYWUnLCAnPG91dGZpbGUubWFlPic=

>  <s_epik_input>  (1) 
Tz1DKFtDSDNdKVtDSDJdW0NAQEhdKFtDSDJdW0NIM10pW0NAQEhdKFtDSDJdL1tDSF09W0NIXVwxKU4oW0NIM10pW0NIMl1DKEMyPU8pPUMxW0NIXT1DKFtDQEhdMjMpQz00QyhTMyk9W0NIXVtDQEhdKFtPSF0pQyhGKShGKVtDSF00

>  <s_glide_docking_method>  (1) 
confgen

>  <s_i_glide_gridfile>  (1) 
gpcr_drd2_6luq_protein_autoprepared_prepared

>  <s_lp_Force_Field>  (1) 
S-OPLS

>  <s_lp_Variant>  (1) 
DiffSBDD_80_num_sample_100-2

>  <s_m_source_file>  (1) 
generated__ligand_DiffSBDD_2026-05-06_prepared.sdf

>  <GenAI_Model>  (1) 
DiffSBDD

>  <Protein>  (1) 
generic_title2

$$$$
DiffSBDD_3_num_sample_100
     RDKit          3D

  0  0  0  0  0  0  0  0  0  0999 V3000
M  V30 BEGIN CTAB
M  V30 COUNTS 44 45 0 0 1
M  V30 BEGIN ATOM
M  V30 1 C 7.620075 3.738651 -15.486792 0
M  V30 2 O 5.834104 7.301248 -12.720806 0
M  V30 3 C 8.629070 4.001089 -20.181303 0
M  V30 4 O 5.946510 7.582804 -15.375404 0
M  V30 5 C 7.585759 4.509975 -19.152837 0
M  V30 6 C 7.254304 4.306230 -14.247944 0
M  V30 7 C 8.210063 2.339610 -15.534175 0
M  V30 8 C 9.125159 2.536103 -20.067295 0
M  V30 9 C 7.446483 0.529609 -20.079486 0
M  V30 10 O 7.810073 3.890514 -17.886742 0
M  V30 11 C 5.295104 1.954838 -19.617828 0
M  V30 12 C 6.695522 5.600295 -14.195926 0
M  V30 13 C 6.496224 6.331758 -15.400075 0
M  V30 14 C 6.098601 4.468656 -19.599599 0
M  V30 15 C 5.577786 3.255013 -20.394853 0
M  V30 16 C 8.358036 1.475643 -20.885434 0
M  V30 17 C 7.434214 4.465785 -16.684029 0
M  V30 18 C 6.866258 5.765851 -16.634516 0
M  V30 19 C 6.322313 6.179932 -12.869054 0
M  V30 20 C 6.487512 1.163627 -19.055866 0
M  V30 21 H 8.310858 4.230087 -21.199202 0
M  V30 22 H 9.517161 4.618558 -20.032515 0
M  V30 23 H 5.724546 7.847162 -14.489908 0
M  V30 24 H 7.848640 5.563206 -19.058421 0
M  V30 25 H 7.402923 3.746252 -13.335267 0
M  V30 26 H 8.634638 2.042603 -14.572390 0
M  V30 27 H 7.434471 1.619065 -15.794186 0
M  V30 28 H 8.995859 2.270156 -16.289446 0
M  V30 29 H 10.143262 2.536373 -20.458815 0
M  V30 30 H 9.243267 2.228077 -19.028967 0
M  V30 31 H 6.876278 -0.093890 -20.770056 0
M  V30 32 H 8.093976 -0.157130 -19.532677 0
M  V30 33 H 4.721374 1.289448 -20.263772 0
M  V30 34 H 4.634843 2.192596 -18.787043 0
M  V30 35 H 5.439705 4.644487 -18.750333 0
M  V30 36 H 5.950243 5.335353 -20.245747 0
M  V30 37 H 6.172363 3.080179 -21.283569 0
M  V30 38 H 4.614149 3.563864 -20.798447 0
M  V30 39 H 7.837010 1.920393 -21.729293 0
M  V30 40 H 9.100623 0.836370 -21.364792 0
M  V30 41 H 6.711046 6.329800 -17.538325 0
M  V30 42 H 6.519127 5.520152 -12.023968 0
M  V30 43 H 6.062551 0.340760 -18.480098 0
M  V30 44 H 7.033244 1.740738 -18.318779 0
M  V30 END ATOM
M  V30 BEGIN BOND
M  V30 1 1 5 3
M  V30 2 2 6 1
M  V30 3 1 7 1
M  V30 4 1 8 3
M  V30 5 1 10 5
M  V30 6 1 12 6
M  V30 7 1 13 4
M  V30 8 2 13 12
M  V30 9 1 14 5
M  V30 10 1 15 11
M  V30 11 1 15 14
M  V30 12 1 16 8
M  V30 13 1 16 9
M  V30 14 1 17 1
M  V30 15 1 17 10
M  V30 16 1 18 13
M  V30 17 2 18 17
M  V30 18 2 19 2
M  V30 19 1 19 12
M  V30 20 1 20 9
M  V30 21 1 20 11
M  V30 22 1 21 3
M  V30 23 1 22 3
M  V30 24 1 23 4
M  V30 25 1 24 5
M  V30 26 1 25 6
M  V30 27 1 26 7
M  V30 28 1 27 7
M  V30 29 1 28 7
M  V30 30 1 29 8
M  V30 31 1 30 8
M  V30 32 1 31 9
M  V30 33 1 32 9
M  V30 34 1 33 11
M  V30 35 1 34 11
M  V30 36 1 35 14
M  V30 37 1 36 14
M  V30 38 1 37 15
M  V30 39 1 38 15
M  V30 40 1 39 16
M  V30 41 1 40 16
M  V30 42 1 41 18
M  V30 43 1 42 19
M  V30 44 1 43 20
M  V30 45 1 44 20
M  V30 END BOND
M  V30 END CTAB
M  END
>  <i_epik_Tot_Q>  (1) 
0

>  <i_epik_Tot_abs_Q>  (1) 
0

>  <i_i_glide_confnum>  (1) 
107

>  <i_i_glide_lignum>  (1) 
5

>  <i_i_glide_posenum>  (1) 
129

>  <i_i_glide_rotatable_bonds>  (1) 
4

>  <i_lp_mmshare_version>  (1) 
72125

>  <i_m_source_file_index>  (1) 
4

>  <i_f3d_flags>  (1) 
0

>  <num_sample>  (1) 
100

>  <b_lp_Chiralities_Consistent>  (1) 
1

>  <r_epik_Charging_Adjusted_Penalty>  (1) 
0.086869227700427584

>  <r_epik_Ionization_Penalty>  (1) 
0.086869227700427626

>  <r_epik_Ionization_Penalty_Charging>  (1) 
0

>  <r_epik_Ionization_Penalty_Neutral>  (1) 
0.086869227700427626

>  <r_epik_State_Penalty>  (1) 
0.086869227700427584

>  <r_glide_ring_energy>  (1) 
1.6418886826786672

>  <r_i_docking_score>  (1) 
-3.1372729754324338

>  <r_i_glide_ecoul>  (1) 
-0.020026858478939064

>  <r_i_glide_eff_state_penalty>  (1) 
0.086869227700427584

>  <r_i_glide_einternal>  (1) 
0.2670368085873065

>  <r_i_glide_emodel>  (1) 
-20.608492555063183

>  <r_i_glide_emodel_strain>  (1) 
0

>  <r_i_glide_energy>  (1) 
-17.288222279865067

>  <r_i_glide_erotb>  (1) 
0.47104844352190411

>  <r_i_glide_esite>  (1) 
-0.001048560699293993

>  <r_i_glide_evdw>  (1) 
-17.268195421386128

>  <r_i_glide_gscore>  (1) 
-3.2241422031328613

>  <r_i_glide_gscore_strain>  (1) 
0

>  <r_i_glide_hbond>  (1) 
0

>  <r_i_glide_ligand_efficiency>  (1) 
-0.15686364877162168

>  <r_i_glide_ligand_efficiency_ln>  (1) 
-0.78515595156278994

>  <r_i_glide_ligand_efficiency_sa>  (1) 
-0.42579345162904592

>  <r_i_glide_lipo>  (1) 
-1.3030398542961414

>  <r_i_glide_metal>  (1) 
-0

>  <r_i_glide_rewards>  (1) 
-1.5246884318181826

>  <r_lp_Energy>  (1) 
28.610363

>  <s_epik_cmdline>  (1) 
J2VwaWtfcHl0aG9uJywgJy1waHQnLCAnMS4wJywgJy1waCcsICc3LjQnLCAnLXRuJywgJzgnLCAnLW1hJywgJzUwMCcsICctaW1hZScsICc8aW5maWxlLm1hZT4nLCAnLW9tYWUnLCAnPG91dGZpbGUubWFlPic=

>  <s_epik_input>  (1) 
W0NIM11jMVtjSF1jKFtDSF09TyljKFtPSF0pW2NIXWMxT1tDSF0yW0NIMl1bQ0gyXVtDSDJdW0NIMl1bQ0gyXVtDSDJdW0NIMl1bQ0gyXTI=

>  <s_glide_docking_method>  (1) 
confgen

>  <s_i_glide_gridfile>  (1) 
gpcr_drd2_6luq_protein_autoprepared_prepared

>  <s_lp_Force_Field>  (1) 
S-OPLS

>  <s_lp_Variant>  (1) 
DiffSBDD_3_num_sample_100-1

>  <s_m_source_file>  (1) 
generated__ligand_DiffSBDD_2026-05-06_prepared.sdf

>  <GenAI_Model>  (1) 
DiffSBDD

>  <Protein>  (1) 
generic_title2

$$$$
DiffSBDD_3_num_sample_100
     RDKit          3D

  0  0  0  0  0  0  0  0  0  0999 V3000
M  V30 BEGIN CTAB
M  V30 COUNTS 43 44 0 0 1
M  V30 BEGIN ATOM
M  V30 1 C 9.099450 6.025439 -8.204238 0
M  V30 2 O 11.871041 9.477537 -6.195258 0
M  V30 3 C 9.243475 4.241444 -12.579178 0
M  V30 4 O 11.997340 8.969282 -8.893614 0 CHG=-1
M  V30 5 C 9.549306 5.583464 -11.881215 0
M  V30 6 C 9.581785 6.785812 -7.121739 0
M  V30 7 C 8.048796 4.969060 -7.975182 0
M  V30 8 C 7.769853 3.789949 -12.617366 0
M  V30 9 C 5.715886 5.103945 -13.517504 0
M  V30 10 O 9.083453 5.485098 -10.542885 0
M  V30 11 C 6.564106 6.992491 -11.971394 0
M  V30 12 C 10.555563 7.783354 -7.329950 0
M  V30 13 C 11.053215 8.014832 -8.650431 0
M  V30 14 C 9.065000 6.834029 -12.642351 0
M  V30 15 C 7.930069 7.685800 -12.063453 0
M  V30 16 C 6.965035 4.266619 -13.842979 0
M  V30 17 C 9.583906 6.249384 -9.503558 0
M  V30 18 C 10.564240 7.248168 -9.725813 0
M  V30 19 C 11.034799 8.574589 -6.146400 0
M  V30 20 C 5.977537 6.607153 -13.337739 0
M  V30 21 H 9.663327 4.242082 -13.584449 0
M  V30 22 H 9.802743 3.473503 -12.043467 0
M  V30 23 H 10.635206 5.621114 -11.891686 0
M  V30 24 H 9.198338 6.605584 -6.127829 0
M  V30 25 H 7.377354 4.931229 -8.830736 0
M  V30 26 H 8.519012 3.993599 -7.891600 0
M  V30 27 H 7.450501 5.182221 -7.091250 0
M  V30 28 H 7.775254 2.699882 -12.654776 0
M  V30 29 H 7.266301 4.026549 -11.680869 0
M  V30 30 H 5.034866 5.003414 -14.358396 0
M  V30 31 H 5.180699 4.693575 -12.659746 0
M  V30 32 H 5.869391 7.683229 -11.491671 0
M  V30 33 H 6.616688 6.140788 -11.295609 0
M  V30 34 H 9.921740 7.505226 -12.691676 0
M  V30 35 H 8.800067 6.548165 -13.654408 0
M  V30 36 H 7.829839 8.578227 -12.680784 0
M  V30 37 H 8.234839 8.062516 -11.091669 0
M  V30 38 H 7.597624 4.790041 -14.559971 0
M  V30 39 H 6.627909 3.375459 -14.374528 0
M  V30 40 H 10.942295 7.428963 -10.716992 0
M  V30 41 H 10.569597 8.280192 -5.205542 0
M  V30 42 H 6.590038 6.983263 -14.157188 0
M  V30 43 H 5.034840 7.137332 -13.444985 0
M  V30 END ATOM
M  V30 BEGIN BOND
M  V30 1 1 5 3
M  V30 2 2 6 1
M  V30 3 1 7 1
M  V30 4 1 8 3
M  V30 5 1 10 5
M  V30 6 1 12 6
M  V30 7 1 13 4
M  V30 8 2 13 12
M  V30 9 1 14 5
M  V30 10 1 15 11
M  V30 11 1 15 14
M  V30 12 1 16 8
M  V30 13 1 16 9
M  V30 14 1 17 1
M  V30 15 1 17 10
M  V30 16 1 18 13
M  V30 17 2 18 17
M  V30 18 2 19 2
M  V30 19 1 19 12
M  V30 20 1 20 9
M  V30 21 1 20 11
M  V30 22 1 21 3
M  V30 23 1 22 3
M  V30 24 1 23 5
M  V30 25 1 24 6
M  V30 26 1 25 7
M  V30 27 1 26 7
M  V30 28 1 27 7
M  V30 29 1 28 8
M  V30 30 1 29 8
M  V30 31 1 30 9
M  V30 32 1 31 9
M  V30 33 1 32 11
M  V30 34 1 33 11
M  V30 35 1 34 14
M  V30 36 1 35 14
M  V30 37 1 36 15
M  V30 38 1 37 15
M  V30 39 1 38 16
M  V30 40 1 39 16
M  V30 41 1 40 18
M  V30 42 1 41 19
M  V30 43 1 42 20
M  V30 44 1 43 20
M  V30 END BOND
M  V30 END CTAB
M  END
>  <i_epik_Tot_Q>  (1) 
-1

>  <i_epik_Tot_abs_Q>  (1) 
1

>  <i_i_glide_confnum>  (1) 
68

>  <i_i_glide_lignum>  (1) 
6

>  <i_i_glide_posenum>  (1) 
239

>  <i_i_glide_rotatable_bonds>  (1) 
3

>  <i_lp_mmshare_version>  (1) 
72125

>  <i_m_source_file_index>  (1) 
4

>  <i_f3d_flags>  (1) 
0

>  <num_sample>  (1) 
100

>  <b_lp_Chiralities_Consistent>  (1) 
1

>  <r_epik_Charging_Adjusted_Penalty>  (1) 
2.3608621275216617

>  <r_epik_Ionization_Penalty>  (1) 
1.1804310637608308

>  <r_epik_Ionization_Penalty_Charging>  (1) 
1.1804310637608308

>  <r_epik_Ionization_Penalty_Neutral>  (1) 
0

>  <r_epik_State_Penalty>  (1) 
1.1804310637608308

>  <r_glide_ring_energy>  (1) 
0.93321886254561981

>  <r_i_docking_score>  (1) 
-3.1344419567054844

>  <r_i_glide_ecoul>  (1) 
0.49842959577373369

>  <r_i_glide_eff_state_penalty>  (1) 
1.1804310637608308

>  <r_i_glide_einternal>  (1) 
1.4755292231790298

>  <r_i_glide_emodel>  (1) 
-32.828094221350007

>  <r_i_glide_emodel_strain>  (1) 
0.016009339468055828

>  <r_i_glide_energy>  (1) 
-28.250477698861076

>  <r_i_glide_erotb>  (1) 
0.47404219121644042

>  <r_i_glide_esite>  (1) 
0

>  <r_i_glide_evdw>  (1) 
-28.748907294634808

>  <r_i_glide_gscore>  (1) 
-4.3148730204663153

>  <r_i_glide_gscore_strain>  (1) 
0

>  <r_i_glide_hbond>  (1) 
0

>  <r_i_glide_ligand_efficiency>  (1) 
-0.15672209783527422

>  <r_i_glide_ligand_efficiency_ln>  (1) 
-0.78444744094868135

>  <r_i_glide_ligand_efficiency_sa>  (1) 
-0.42540922327377884

>  <r_i_glide_lipo>  (1) 
-0.96544372598214656

>  <r_i_glide_metal>  (1) 
-0

>  <r_i_glide_rewards>  (1) 
-2.4607905603349289

>  <r_lp_Energy>  (1) 
27.878793999999999

>  <s_epik_cmdline>  (1) 
J2VwaWtfcHl0aG9uJywgJy1waHQnLCAnMS4wJywgJy1waCcsICc3LjQnLCAnLXRuJywgJzgnLCAnLW1hJywgJzUwMCcsICctaW1hZScsICc8aW5maWxlLm1hZT4nLCAnLW9tYWUnLCAnPG91dGZpbGUubWFlPic=

>  <s_epik_input>  (1) 
W0NIM11jMVtjSF1jKFtDSF09TyljKFtPSF0pW2NIXWMxT1tDSF0yW0NIMl1bQ0gyXVtDSDJdW0NIMl1bQ0gyXVtDSDJdW0NIMl1bQ0gyXTI=

>  <s_glide_docking_method>  (1) 
confgen

>  <s_i_glide_gridfile>  (1) 
gpcr_drd2_6luq_protein_autoprepared_prepared

>  <s_lp_Force_Field>  (1) 
S-OPLS

>  <s_lp_Variant>  (1) 
DiffSBDD_3_num_sample_100-2

>  <s_m_source_file>  (1) 
generated__ligand_DiffSBDD_2026-05-06_prepared.sdf

>  <GenAI_Model>  (1) 
DiffSBDD

>  <Protein>  (1) 
generic_title2

$$$$
DiffSBDD_55_num_sample_100
     RDKit          3D

  0  0  0  0  0  0  0  0  0  0999 V3000
M  V30 BEGIN CTAB
M  V30 COUNTS 50 53 0 0 1
M  V30 BEGIN ATOM
M  V30 1 O 6.259556 6.835291 -13.541838 0
M  V30 2 C 11.215398 8.251339 -21.965523 0
M  V30 3 C 4.982909 6.650037 -17.832166 0
M  V30 4 C 5.302420 7.498790 -20.743077 0
M  V30 5 C 7.034839 4.985919 -16.738054 0 CFG=2
M  V30 6 C 6.310157 5.979087 -15.825439 0 CFG=1
M  V30 7 S 10.898586 6.384029 -20.032347 0
M  V30 8 C 11.879204 7.769301 -20.670957 0
M  V30 9 C 9.726854 8.008710 -21.777062 0
M  V30 10 C 8.064734 5.772075 -12.464506 0
M  V30 11 N 5.773081 5.915388 -18.825944 0
M  V30 12 C 7.124039 6.372678 -14.570887 0 CFG=2
M  V30 13 C 5.807185 7.181701 -16.655214 0 CFG=2
M  V30 14 C 7.837097 5.221249 -13.859862 0
M  V30 15 C 6.948204 6.805741 -12.296503 0
M  V30 16 C 8.419548 5.947900 -21.209263 0
M  V30 17 C 6.345267 6.711401 -19.927780 0 CFG=1
M  V30 18 C 9.336720 7.037763 -20.671897 0 CFG=1
M  V30 19 C 8.073997 5.369288 -17.759243 0
M  V30 20 O 8.884804 8.569297 -22.475875 0
M  V30 21 O 5.005935 8.052926 -15.891569 0
M  V30 22 C 7.116670 5.804139 -20.886071 0
M  V30 23 C 6.694740 4.930372 -18.223900 0 CFG=1
M  V30 24 H 11.426295 9.300946 -22.170828 0
M  V30 25 H 11.558252 7.663092 -22.816799 0
M  V30 26 H 4.226555 5.978545 -17.428197 0
M  V30 27 H 4.418879 7.456796 -18.294937 0
M  V30 28 H 5.765977 7.966235 -21.612742 0
M  V30 29 H 4.505348 6.847970 -21.103407 0
M  V30 30 H 4.847524 8.306861 -20.171350 0
M  V30 31 H 7.189746 4.015613 -16.270353 0
M  V30 32 H 5.434446 5.442987 -15.459101 0
M  V30 33 H 11.881225 8.568240 -19.927430 0
M  V30 34 H 12.913244 7.464535 -20.833376 0
M  V30 35 H 9.038452 6.259427 -12.401267 0
M  V30 36 H 8.028816 4.992508 -11.702673 0
M  V30 37 H 7.834801 7.161560 -14.806867 0
M  V30 38 H 6.634914 7.769334 -17.030986 0
M  V30 39 H 7.183912 4.349064 -13.805658 0
M  V30 40 H 8.764026 4.923863 -14.351508 0
M  V30 41 H 7.359742 7.790711 -12.072730 0
M  V30 42 H 6.257326 6.540486 -11.495337 0
M  V30 43 H 8.867715 5.248966 -21.900309 0
M  V30 44 H 7.007730 7.450005 -19.491464 0
M  V30 45 H 8.886689 7.622704 -19.878181 0
M  V30 46 H 8.895078 4.674038 -17.919834 0
M  V30 47 H 8.334755 6.414236 -17.891670 0
M  V30 48 H 4.777824 8.803397 -16.421450 0
M  V30 49 H 6.554616 4.993273 -21.326306 0
M  V30 50 H 6.616410 3.957713 -18.706233 0
M  V30 END ATOM
M  V30 BEGIN BOND
M  V30 1 1 6 5
M  V30 2 1 8 2
M  V30 3 1 8 7
M  V30 4 1 9 2
M  V30 5 1 11 3
M  V30 6 1 12 1
M  V30 7 1 12 6
M  V30 8 1 13 3
M  V30 9 1 13 6
M  V30 10 1 14 10
M  V30 11 1 14 12
M  V30 12 1 15 1
M  V30 13 1 15 10
M  V30 14 1 17 4
M  V30 15 1 17 11
M  V30 16 1 18 7
M  V30 17 1 18 9
M  V30 18 1 18 16
M  V30 19 1 19 5
M  V30 20 2 20 9
M  V30 21 1 21 13
M  V30 22 2 22 16
M  V30 23 1 22 17
M  V30 24 1 23 5
M  V30 25 1 23 11
M  V30 26 1 23 19
M  V30 27 1 24 2
M  V30 28 1 25 2
M  V30 29 1 26 3
M  V30 30 1 27 3
M  V30 31 1 28 4
M  V30 32 1 29 4
M  V30 33 1 30 4
M  V30 34 1 5 31 CFG=1
M  V30 35 1 6 32 CFG=1
M  V30 36 1 33 8
M  V30 37 1 34 8
M  V30 38 1 35 10
M  V30 39 1 36 10
M  V30 40 1 12 37 CFG=3
M  V30 41 1 13 38 CFG=3
M  V30 42 1 39 14
M  V30 43 1 40 14
M  V30 44 1 41 15
M  V30 45 1 42 15
M  V30 46 1 43 16
M  V30 47 1 17 44 CFG=1
M  V30 48 1 18 45 CFG=1
M  V30 49 1 46 19
M  V30 50 1 47 19
M  V30 51 1 48 21
M  V30 52 1 49 22
M  V30 53 1 23 50 CFG=3
M  V30 END BOND
M  V30 END CTAB
M  END
>  <i_epik_Tot_Q>  (1) 
0

>  <i_epik_Tot_abs_Q>  (1) 
0

>  <i_i_glide_confnum>  (1) 
212

>  <i_i_glide_lignum>  (1) 
109

>  <i_i_glide_posenum>  (1) 
191

>  <i_i_glide_rotatable_bonds>  (1) 
5

>  <i_lp_mmshare_version>  (1) 
72125

>  <i_m_source_file_index>  (1) 
56

>  <i_f3d_flags>  (1) 
0

>  <num_sample>  (1) 
100

>  <b_lp_Chiralities_Consistent>  (1) 
1

>  <r_epik_Charging_Adjusted_Penalty>  (1) 
1.1351003249830234

>  <r_epik_Ionization_Penalty>  (1) 
1.13510036387319

>  <r_epik_Ionization_Penalty_Charging>  (1) 
0

>  <r_epik_Ionization_Penalty_Neutral>  (1) 
1.13510036387319

>  <r_epik_State_Penalty>  (1) 
1.1351003249830234

>  <r_glide_ring_energy>  (1) 
0

>  <r_i_docking_score>  (1) 
-3.1141825521386943

>  <r_i_glide_ecoul>  (1) 
-1.5910998270787859

>  <r_i_glide_eff_state_penalty>  (1) 
1.1351003249830234

>  <r_i_glide_einternal>  (1) 
1.0041937887599977

>  <r_i_glide_emodel>  (1) 
-34.145311281313852

>  <r_i_glide_emodel_strain>  (1) 
0.18848505931012483

>  <r_i_glide_energy>  (1) 
-27.77154822314187

>  <r_i_glide_erotb>  (1) 
0.4978175189556282

>  <r_i_glide_esite>  (1) 
0

>  <r_i_glide_evdw>  (1) 
-26.180448396063085

>  <r_i_glide_gscore>  (1) 
-4.2492828771217175

>  <r_i_glide_gscore_strain>  (1) 
0

>  <r_i_glide_hbond>  (1) 
0

>  <r_i_glide_ligand_efficiency>  (1) 
-0.13539924139733453

>  <r_i_glide_ligand_efficiency_ln>  (1) 
-0.7530375789533077

>  <r_i_glide_ligand_efficiency_sa>  (1) 
-0.38505743170683082

>  <r_i_glide_lipo>  (1) 
-1.7390599355519269

>  <r_i_glide_metal>  (1) 
-0

>  <r_i_glide_rewards>  (1) 
-1.460353066660447

>  <r_lp_Energy>  (1) 
16.200793000000001

>  <r_lp_tautomer_probability>  (1) 
0.99995000000000001

>  <s_epik_cmdline>  (1) 
J2VwaWtfcHl0aG9uJywgJy1waHQnLCAnMS4wJywgJy1waCcsICc3LjQnLCAnLXRuJywgJzgnLCAnLW1hJywgJzUwMCcsICctaW1hZScsICc8aW5maWxlLm1hZT4nLCAnLW9tYWUnLCAnPG91dGZpbGUubWFlPic=

>  <s_epik_input>  (1) 
W0NIMl0xW0NIMl1bQ0gyXU9bQ0BASF0xW0NASF0yW0NASF0oW09IXSlbQ0gyXU4oW0NASF0oW0NASF0yMylbQ0gyXTMpW0NASF0oW0NIM10pL1tDSF09W0NIXVxbQ0BIXTRTW0NIMl1bQ0gyXUM0PU8=

>  <s_glide_docking_method>  (1) 
confgen

>  <s_i_glide_gridfile>  (1) 
gpcr_drd2_6luq_protein_autoprepared_prepared

>  <s_lp_Force_Field>  (1) 
S-OPLS

>  <s_lp_Variant>  (1) 
DiffSBDD_55_num_sample_100-10

>  <s_m_source_file>  (1) 
generated__ligand_DiffSBDD_2026-05-06_prepared.sdf

>  <GenAI_Model>  (1) 
DiffSBDD

>  <Protein>  (1) 
generic_title2

$$$$
DiffSBDD_39_num_sample_100
     RDKit          3D

  0  0  0  0  0  0  0  0  0  0999 V3000
M  V30 BEGIN CTAB
M  V30 COUNTS 66 70 0 0 1
M  V30 BEGIN ATOM
M  V30 1 C 7.152685 5.637463 -17.719176 0 CFG=2
M  V30 2 N 7.854092 -4.011373 -20.804248 0
M  V30 3 C 7.834922 -2.855853 -18.651415 0
M  V30 4 C 8.596974 1.326260 -17.265140 0
M  V30 5 C 7.345082 5.708851 -13.062512 0 CFG=2
M  V30 6 C 7.431186 -4.046524 -18.015060 0
M  V30 7 C 6.170686 6.411763 -12.420620 0
M  V30 8 C 9.111908 4.706030 -15.477157 0
M  V30 9 C 8.875666 0.581367 -19.989842 0 CFG=2
M  V30 10 C 7.561504 3.212813 -18.536901 0
M  V30 11 N 8.412793 -1.744871 -20.822986 0
M  V30 12 C 8.007204 2.810329 -19.686521 0
M  V30 13 C 7.823412 -0.472594 -20.417918 0
M  V30 14 O 6.854948 6.968050 -13.546692 0
M  V30 15 C 6.673419 4.449244 -18.545166 0
M  V30 16 C 6.835283 5.513606 -16.227664 0
M  V30 17 C 7.465478 -5.135830 -20.169833 0
M  V30 18 C 7.239547 -5.199855 -18.787121 0
M  V30 19 C 7.081349 4.471423 -13.945679 0
M  V30 20 C 8.940210 4.601404 -11.375370 0
M  V30 21 O 6.409327 6.749803 -18.174640 0
M  V30 22 C 7.845186 2.481601 -17.279776 0
M  V30 23 C 7.285440 2.992921 -15.942067 0
M  V30 24 C 7.599243 4.435485 -15.427896 0 CFG=2
M  V30 25 C 8.700119 5.759482 -12.357696 0
M  V30 26 C 9.445471 -0.885016 -18.030009 0
M  V30 27 C 8.092006 -1.602692 -17.803282 0
M  V30 28 N 7.293790 -6.270905 -20.952804 0
M  V30 29 C 8.020087 -2.881043 -20.079907 0
M  V30 30 C 9.285699 0.584089 -18.465171 0 CFG=2
M  V30 31 C 8.442173 1.911342 -20.499805 0
M  V30 32 H 8.209749 5.838214 -17.894372 0
M  V30 33 H 8.754436 0.852377 -16.307586 0
M  V30 34 H 7.277669 -4.075935 -16.948780 0
M  V30 35 H 5.160449 6.071854 -12.632306 0
M  V30 36 H 6.317074 6.957127 -11.491673 0
M  V30 37 H 9.328948 5.763877 -15.344457 0
M  V30 38 H 9.612771 4.169375 -14.675720 0
M  V30 39 H 9.566308 4.408549 -16.422105 0
M  V30 40 H 9.785751 0.370426 -20.554130 0
M  V30 41 H 6.954843 -0.540678 -19.768873 0
M  V30 42 H 7.375943 -0.120596 -21.347960 0
M  V30 43 H 5.656786 4.164509 -18.291740 0
M  V30 44 H 6.580918 4.795064 -19.578407 0
M  V30 45 H 7.054778 6.487886 -15.800586 0
M  V30 46 H 5.762292 5.370136 -16.095380 0
M  V30 47 H 6.929855 -6.124092 -18.322628 0
M  V30 48 H 6.000126 4.320435 -13.974140 0
M  V30 49 H 7.450184 3.600797 -13.406169 0
M  V30 50 H 9.834731 4.780935 -10.782332 0
M  V30 51 H 8.106791 4.495783 -10.680355 0
M  V30 52 H 9.082015 3.649780 -11.887280 0
M  V30 53 H 6.621995 7.494554 -17.632866 0
M  V30 54 H 6.234910 2.754291 -15.891583 0
M  V30 55 H 7.692508 2.320781 -15.186075 0
M  V30 56 H 9.509762 5.815842 -13.080940 0
M  V30 57 H 8.752198 6.697672 -11.802015 0
M  V30 58 H 10.029163 -0.933721 -17.109615 0
M  V30 59 H 10.048154 -1.415189 -18.758946 0
M  V30 60 H 7.231737 -0.935411 -17.813194 0
M  V30 61 H 8.114526 -1.921213 -16.762042 0
M  V30 62 H 6.995352 -7.147504 -20.553851 0
M  V30 63 H 10.289844 1.011844 -18.450528 0
M  V30 64 H 8.419741 2.051765 -21.570595 0
M  V30 65 H 7.440008 -6.246246 -21.950430 0
M  V30 66 H 8.502336 -1.887098 -21.818089 0
M  V30 END ATOM
M  V30 BEGIN BOND
M  V30 1 1 6 3
M  V30 2 1 7 5
M  V30 3 2 12 10
M  V30 4 1 13 9
M  V30 5 1 13 11
M  V30 6 1 14 5
M  V30 7 1 14 7
M  V30 8 1 15 1
M  V30 9 1 15 10
M  V30 10 1 16 1
M  V30 11 2 17 2
M  V30 12 2 18 6
M  V30 13 1 18 17
M  V30 14 1 5 19 CFG=3
M  V30 15 1 21 1
M  V30 16 2 22 4
M  V30 17 1 22 10
M  V30 18 1 23 22
M  V30 19 1 24 8 CFG=1
M  V30 20 1 24 16
M  V30 21 1 24 19
M  V30 22 1 24 23
M  V30 23 1 25 5
M  V30 24 1 25 20
M  V30 25 1 27 3
M  V30 26 1 27 26
M  V30 27 1 28 17
M  V30 28 1 29 2
M  V30 29 2 29 3
M  V30 30 1 29 11
M  V30 31 1 30 4
M  V30 32 1 30 9
M  V30 33 1 30 26
M  V30 34 1 31 9
M  V30 35 2 31 12
M  V30 36 1 1 32 CFG=1
M  V30 37 1 33 4
M  V30 38 1 34 6
M  V30 39 1 35 7
M  V30 40 1 36 7
M  V30 41 1 37 8
M  V30 42 1 38 8
M  V30 43 1 39 8
M  V30 44 1 9 40 CFG=3
M  V30 45 1 41 13
M  V30 46 1 42 13
M  V30 47 1 43 15
M  V30 48 1 44 15
M  V30 49 1 45 16
M  V30 50 1 46 16
M  V30 51 1 47 18
M  V30 52 1 48 19
M  V30 53 1 49 19
M  V30 54 1 50 20
M  V30 55 1 51 20
M  V30 56 1 52 20
M  V30 57 1 53 21
M  V30 58 1 54 23
M  V30 59 1 55 23
M  V30 60 1 56 25
M  V30 61 1 57 25
M  V30 62 1 58 26
M  V30 63 1 59 26
M  V30 64 1 60 27
M  V30 65 1 61 27
M  V30 66 1 62 28
M  V30 67 1 30 63 CFG=3
M  V30 68 1 64 31
M  V30 69 1 65 28
M  V30 70 1 66 11
M  V30 END BOND
M  V30 END CTAB
M  END
>  <i_epik_Tot_Q>  (1) 
0

>  <i_epik_Tot_abs_Q>  (1) 
0

>  <i_i_glide_confnum>  (1) 
12

>  <i_i_glide_lignum>  (1) 
69

>  <i_i_glide_posenum>  (1) 
81

>  <i_i_glide_rotatable_bonds>  (1) 
4

>  <i_lp_mmshare_version>  (1) 
72125

>  <i_m_source_file_index>  (1) 
40

>  <i_f3d_flags>  (1) 
0

>  <num_sample>  (1) 
100

>  <b_lp_Chiralities_Consistent>  (1) 
1

>  <r_epik_Charging_Adjusted_Penalty>  (1) 
0

>  <r_epik_Ionization_Penalty>  (1) 
0.1664306043943147

>  <r_epik_Ionization_Penalty_Charging>  (1) 
0

>  <r_epik_Ionization_Penalty_Neutral>  (1) 
0.1664306043943147

>  <r_epik_State_Penalty>  (1) 
-0

>  <r_glide_ring_energy>  (1) 
0

>  <r_i_docking_score>  (1) 
-3.1127563310577417

>  <r_i_glide_ecoul>  (1) 
-1.8166415201064976

>  <r_i_glide_eff_state_penalty>  (1) 
-0

>  <r_i_glide_einternal>  (1) 
1.4676057150096185

>  <r_i_glide_emodel>  (1) 
-23.796226476491515

>  <r_i_glide_emodel_strain>  (1) 
1.0991163677856264

>  <r_i_glide_energy>  (1) 
-21.344052147699507

>  <r_i_glide_erotb>  (1) 
0.22283361910969357

>  <r_i_glide_esite>  (1) 
0

>  <r_i_glide_evdw>  (1) 
-19.52741062759301

>  <r_i_glide_gscore>  (1) 
-3.1127563310577417

>  <r_i_glide_gscore_strain>  (1) 
0

>  <r_i_glide_hbond>  (1) 
0

>  <r_i_glide_ligand_efficiency>  (1) 
-0.10041149455024974

>  <r_i_glide_ligand_efficiency_ln>  (1) 
-0.70202194717861854

>  <r_i_glide_ligand_efficiency_sa>  (1) 
-0.3154307262578584

>  <r_i_glide_lipo>  (1) 
-1.3448314572319251

>  <r_i_glide_metal>  (1) 
-0

>  <r_i_glide_rewards>  (1) 
-0.74189173353988525

>  <r_lp_Energy>  (1) 
40.513892999999996

>  <r_lp_tautomer_probability>  (1) 
1

>  <s_epik_cmdline>  (1) 
J2VwaWtfcHl0aG9uJywgJy1waHQnLCAnMS4wJywgJy1waCcsICc3LjQnLCAnLXRuJywgJzgnLCAnLW1hJywgJzUwMCcsICctaW1hZScsICc8aW5maWxlLm1hZT4nLCAnLW9tYWUnLCAnPG91dGZpbGUubWFlPic=

>  <s_epik_input>  (1) 
TzFbQ0gyXVtDQEBdMShbQ0gyXVtDSDNdKVtDSDJdW0NAQF0oW0NIM10pKFtDSDJdMilbQ0gyXVtDQEhdKFtPSF0pW0NIMl1DKD1DPVtDSF0zKUMyPVtDSF1bQ0BASF0oW0NIMl1bQ0gyXTQpW0NASF0zW0NIMl1bTkhdQyhbQ0BIXTQ1KT1OL0MoPU4vW0hdKVtDSF09W0NIXTU=

>  <s_glide_docking_method>  (1) 
confgen

>  <s_i_glide_gridfile>  (1) 
gpcr_drd2_6luq_protein_autoprepared_prepared

>  <s_lp_Force_Field>  (1) 
S-OPLS

>  <s_lp_Variant>  (1) 
DiffSBDD_39_num_sample_100-1

>  <s_m_source_file>  (1) 
generated__ligand_DiffSBDD_2026-05-06_prepared.sdf

>  <GenAI_Model>  (1) 
DiffSBDD

>  <Protein>  (1) 
generic_title2

$$$$
DiffSBDD_51_num_sample_100
     RDKit          3D

  0  0  0  0  0  0  0  0  0  0999 V3000
M  V30 BEGIN CTAB
M  V30 COUNTS 33 34 0 0 1
M  V30 BEGIN ATOM
M  V30 1 C 11.651345 7.967648 -9.091391 0
M  V30 2 C 10.544027 7.032377 -8.568629 0
M  V30 3 C 9.593491 6.593975 -9.701786 0
M  V30 4 O 8.949022 4.717170 -8.290458 0
M  V30 5 C 11.879018 9.005623 -6.781838 0
M  V30 6 C 6.750864 6.814673 -12.878649 0
M  V30 7 N 7.856174 6.778094 -11.891667 0 CHG=1
M  V30 8 C 6.335499 5.397512 -12.370648 0
M  V30 9 C 12.612056 8.336759 -7.954629 0
M  V30 10 C 7.364759 5.675549 -11.345358 0
M  V30 11 C 9.789705 7.716393 -7.400692 0
M  V30 12 N 7.667418 4.983264 -10.213823 0
M  V30 13 C 10.749930 8.103419 -6.265346 0
M  V30 14 C 8.738282 5.369326 -9.306848 0
M  V30 15 H 12.209147 7.481515 -9.893536 0
M  V30 16 H 11.217791 8.874184 -9.514565 0
M  V30 17 H 11.036174 6.143849 -8.171508 0
M  V30 18 H 10.173578 6.326616 -10.585594 0
M  V30 19 H 9.034818 7.492107 -9.926084 0
M  V30 20 H 12.580726 9.233506 -5.979472 0
M  V30 21 H 11.465423 9.961486 -7.091739 0
M  V30 22 H 6.017955 7.589896 -12.653853 0
M  V30 23 H 7.098027 6.830607 -13.912698 0
M  V30 24 H 6.604262 4.568459 -13.027624 0
M  V30 25 H 5.331520 5.331806 -11.951340 0
M  V30 26 H 13.062998 7.416394 -7.596544 0
M  V30 27 H 13.418838 8.969601 -8.324086 0
M  V30 28 H 9.276070 8.609456 -7.761708 0
M  V30 29 H 9.007295 7.067865 -7.003669 0
M  V30 30 H 8.208914 7.568989 -11.366927 0
M  V30 31 H 11.170236 7.199313 -5.820749 0
M  V30 32 H 10.202271 8.618363 -5.479869 0
M  V30 33 H 7.080624 4.181826 -10.040326 0
M  V30 END ATOM
M  V30 BEGIN BOND
M  V30 1 1 2 1
M  V30 2 1 3 2
M  V30 3 1 7 6
M  V30 4 1 8 6
M  V30 5 1 9 1
M  V30 6 1 9 5
M  V30 7 2 10 7
M  V30 8 1 10 8
M  V30 9 1 11 2
M  V30 10 1 12 10
M  V30 11 1 13 5
M  V30 12 1 13 11
M  V30 13 1 14 3
M  V30 14 2 14 4
M  V30 15 1 14 12
M  V30 16 1 15 1
M  V30 17 1 16 1
M  V30 18 1 17 2
M  V30 19 1 18 3
M  V30 20 1 19 3
M  V30 21 1 20 5
M  V30 22 1 21 5
M  V30 23 1 22 6
M  V30 24 1 23 6
M  V30 25 1 24 8
M  V30 26 1 25 8
M  V30 27 1 26 9
M  V30 28 1 27 9
M  V30 29 1 28 11
M  V30 30 1 29 11
M  V30 31 1 30 7
M  V30 32 1 31 13
M  V30 33 1 32 13
M  V30 34 1 33 12
M  V30 END BOND
M  V30 END CTAB
M  END
>  <i_epik_Tot_Q>  (1) 
1

>  <i_epik_Tot_abs_Q>  (1) 
1

>  <i_i_glide_confnum>  (1) 
4

>  <i_i_glide_lignum>  (1) 
96

>  <i_i_glide_posenum>  (1) 
307

>  <i_i_glide_rotatable_bonds>  (1) 
4

>  <i_lp_mmshare_version>  (1) 
72125

>  <i_m_source_file_index>  (1) 
52

>  <i_f3d_flags>  (1) 
0

>  <num_sample>  (1) 
100

>  <b_lp_Chiralities_Consistent>  (1) 
1

>  <r_epik_Charging_Adjusted_Penalty>  (1) 
0.0012355626880465899

>  <r_epik_Ionization_Penalty>  (1) 
0.0012355626882857627

>  <r_epik_Ionization_Penalty_Charging>  (1) 
0.0012355626880465899

>  <r_epik_Ionization_Penalty_Neutral>  (1) 
2.3917293134818898e-13

>  <r_epik_State_Penalty>  (1) 
-0

>  <r_glide_ring_energy>  (1) 
0

>  <r_i_docking_score>  (1) 
-3.0998402364897659

>  <r_i_glide_ecoul>  (1) 
-4.1148720780613273

>  <r_i_glide_eff_state_penalty>  (1) 
-0

>  <r_i_glide_einternal>  (1) 
2.1731154662975398

>  <r_i_glide_emodel>  (1) 
-27.674764961582557

>  <r_i_glide_emodel_strain>  (1) 
0

>  <r_i_glide_energy>  (1) 
-22.158750961720752

>  <r_i_glide_erotb>  (1) 
0.84972591180096124

>  <r_i_glide_esite>  (1) 
-0.32140495977140804

>  <r_i_glide_evdw>  (1) 
-18.043878883659424

>  <r_i_glide_gscore>  (1) 
-3.0998402364897659

>  <r_i_glide_gscore_strain>  (1) 
0

>  <r_i_glide_hbond>  (1) 
-0.0088042341904636997

>  <r_i_glide_ligand_efficiency>  (1) 
-0.22141715974926898

>  <r_i_glide_ligand_efficiency_ln>  (1) 
-0.85182506229367327

>  <r_i_glide_ligand_efficiency_sa>  (1) 
-0.53364685472535178

>  <r_i_glide_lipo>  (1) 
-0.89068038509777803

>  <r_i_glide_metal>  (1) 
-0

>  <r_i_glide_rewards>  (1) 
-1.2092518133389074

>  <r_lp_Energy>  (1) 
15.798371999999999

>  <r_lp_tautomer_probability>  (1) 
1

>  <s_epik_Chemistry_Notes>  (1) 
This compound has an imine and may undergo hydrolysis.

>  <s_epik_cmdline>  (1) 
J2VwaWtfcHl0aG9uJywgJy1waHQnLCAnMS4wJywgJy1waCcsICc3LjQnLCAnLXRuJywgJzgnLCAnLW1hJywgJzUwMCcsICctaW1hZScsICc8aW5maWxlLm1hZT4nLCAnLW9tYWUnLCAnPG91dGZpbGUubWFlPic=

>  <s_epik_input>  (1) 
W0NIMl0xW0NIMl1bQ0gyXVtDSDJdW0NIMl1bQ0hdMVtDSDJdQyg9TylbTkhdQzI9TltDSDJdW0NIMl0y

>  <s_glide_docking_method>  (1) 
confgen

>  <s_i_glide_gridfile>  (1) 
gpcr_drd2_6luq_protein_autoprepared_prepared

>  <s_lp_Force_Field>  (1) 
S-OPLS

>  <s_lp_Variant>  (1) 
DiffSBDD_51_num_sample_100-1

>  <s_m_source_file>  (1) 
generated__ligand_DiffSBDD_2026-05-06_prepared.sdf

>  <GenAI_Model>  (1) 
DiffSBDD

>  <Protein>  (1) 
generic_title2

$$$$
DiffSBDD_80_num_sample_100
     RDKit          3D

  0  0  0  0  0  0  0  0  0  0999 V3000
M  V30 BEGIN CTAB
M  V30 COUNTS 57 60 0 0 1
M  V30 BEGIN ATOM
M  V30 1 C 13.048337 7.390000 -22.672197 0
M  V30 2 C 12.276017 5.689606 -19.982129 0
M  V30 3 O 17.108829 8.328457 -21.319349 0
M  V30 4 C 10.867191 5.697478 -16.286088 0
M  V30 5 C 16.250323 9.209052 -21.317619 0
M  V30 6 C 10.222324 4.668682 -18.864089 0
M  V30 7 C 14.873592 8.985893 -21.944682 0
M  V30 8 C 16.514013 10.569624 -20.692763 0
M  V30 9 C 14.441825 4.766067 -20.645792 0
M  V30 10 C 14.156654 7.155368 -20.234817 0 CFG=2
M  V30 11 C 9.161159 4.730202 -17.791944 0 CFG=2
M  V30 12 O 5.874803 3.820438 -13.030039 0 CHG=-1
M  V30 13 C 8.918753 4.572133 -15.355642 0
M  V30 14 C 13.320685 8.070730 -19.343782 0
M  V30 15 C 9.712895 5.031332 -16.438979 0
M  V30 16 C 8.208756 4.363548 -12.929495 0
M  V30 17 C 11.718058 6.082194 -17.420404 0
M  V30 18 F 7.704422 5.418488 -12.283176 0
M  V30 19 C 11.436467 5.549596 -18.695982 0
M  V30 20 C 11.928545 8.439081 -22.538088 0
M  V30 21 C 9.101766 4.892766 -14.059901 0
M  V30 22 C 7.895378 3.703450 -15.757383 0
M  V30 23 C 14.283401 7.565701 -21.749828 0 CFG=1
M  V30 24 O 10.044687 3.946688 -19.845563 0
M  V30 25 S 7.858339 3.388991 -17.505973 0
M  V30 26 N 13.728206 5.799112 -19.902025 0
M  V30 27 F 8.981094 3.727090 -12.047035 0
M  V30 28 C 12.893645 6.948656 -17.083776 0
M  V30 29 C 13.603029 7.768596 -17.900895 0
M  V30 30 C 7.034723 3.128444 -14.890503 0
M  V30 31 C 7.053880 3.358925 -13.371782 0 CFG=2
M  V30 32 H 13.398606 7.436104 -23.704021 0
M  V30 33 H 12.638742 6.386257 -22.580232 0
M  V30 34 H 12.112268 4.779671 -20.558165 0
M  V30 35 H 11.801907 6.433538 -20.613764 0
M  V30 36 H 11.215706 5.920953 -15.291137 0
M  V30 37 H 14.191229 9.738029 -21.549729 0
M  V30 38 H 14.967492 9.194590 -23.010589 0
M  V30 39 H 16.629538 11.325254 -21.469358 0
M  V30 40 H 17.424511 10.541235 -20.095080 0
M  V30 41 H 15.684804 10.860047 -20.047081 0
M  V30 42 H 15.519919 4.892160 -20.538978 0
M  V30 43 H 14.195871 4.785353 -21.707545 0
M  V30 44 H 14.184790 3.778622 -20.259885 0
M  V30 45 H 15.173947 7.198492 -19.844720 0
M  V30 46 H 8.578013 5.614044 -18.051104 0
M  V30 47 H 13.644316 9.098815 -19.487235 0
M  V30 48 H 12.249363 8.118161 -19.522136 0
M  V30 49 H 11.114257 8.210855 -23.225829 0
M  V30 50 H 12.280015 9.439932 -22.788384 0
M  V30 51 H 11.499440 8.480103 -21.540892 0
M  V30 52 H 9.899379 5.554027 -13.768405 0
M  V30 53 H 15.029665 6.890205 -22.169979 0
M  V30 54 H 13.215759 6.924855 -16.052447 0
M  V30 55 H 14.431860 8.314784 -17.474916 0
M  V30 56 H 6.280514 2.452783 -15.262330 0
M  V30 57 H 7.371459 2.379049 -13.011688 0
M  V30 END ATOM
M  V30 BEGIN BOND
M  V30 1 2 5 3
M  V30 2 1 7 5
M  V30 3 1 8 5
M  V30 4 1 11 6
M  V30 5 1 14 10
M  V30 6 2 15 4
M  V30 7 1 15 11
M  V30 8 1 15 13
M  V30 9 1 17 4
M  V30 10 1 18 16
M  V30 11 1 19 2
M  V30 12 1 19 6
M  V30 13 2 19 17
M  V30 14 1 20 1
M  V30 15 2 21 13
M  V30 16 1 21 16
M  V30 17 1 22 13
M  V30 18 1 23 1
M  V30 19 1 23 7
M  V30 20 1 23 10
M  V30 21 2 24 6
M  V30 22 1 25 11
M  V30 23 1 25 22
M  V30 24 1 26 2
M  V30 25 1 26 9
M  V30 26 1 26 10
M  V30 27 1 27 16
M  V30 28 1 28 17
M  V30 29 1 29 14
M  V30 30 2 29 28
M  V30 31 2 30 22
M  V30 32 1 31 12
M  V30 33 1 31 16
M  V30 34 1 31 30
M  V30 35 1 32 1
M  V30 36 1 33 1
M  V30 37 1 34 2
M  V30 38 1 35 2
M  V30 39 1 36 4
M  V30 40 1 37 7
M  V30 41 1 38 7
M  V30 42 1 39 8
M  V30 43 1 40 8
M  V30 44 1 41 8
M  V30 45 1 42 9
M  V30 46 1 43 9
M  V30 47 1 44 9
M  V30 48 1 10 45 CFG=1
M  V30 49 1 11 46 CFG=3
M  V30 50 1 47 14
M  V30 51 1 48 14
M  V30 52 1 49 20
M  V30 53 1 50 20
M  V30 54 1 51 20
M  V30 55 1 52 21
M  V30 56 1 23 53 CFG=3
M  V30 57 1 54 28
M  V30 58 1 55 29
M  V30 59 1 56 30
M  V30 60 1 31 57 CFG=1
M  V30 END BOND
M  V30 END CTAB
M  END
>  <i_epik_Tot_Q>  (1) 
-1

>  <i_epik_Tot_abs_Q>  (1) 
1

>  <i_i_glide_confnum>  (1) 
9

>  <i_i_glide_lignum>  (1) 
165

>  <i_i_glide_posenum>  (1) 
152

>  <i_i_glide_rotatable_bonds>  (1) 
4

>  <i_lp_mmshare_version>  (1) 
72125

>  <i_m_source_file_index>  (1) 
81

>  <i_f3d_flags>  (1) 
0

>  <num_sample>  (1) 
100

>  <b_lp_Chiralities_Consistent>  (1) 
1

>  <r_epik_Charging_Adjusted_Penalty>  (1) 
8.7803366933407872e-06

>  <r_epik_Ionization_Penalty>  (1) 
0.00048743314384941063

>  <r_epik_Ionization_Penalty_Charging>  (1) 
8.7803366933407872e-06

>  <r_epik_Ionization_Penalty_Neutral>  (1) 
0.00047865280715606983

>  <r_epik_State_Penalty>  (1) 
-0

>  <r_glide_ring_energy>  (1) 
0

>  <r_i_docking_score>  (1) 
-3.0909417682046918

>  <r_i_glide_ecoul>  (1) 
0.052534399514122088

>  <r_i_glide_eff_state_penalty>  (1) 
-0

>  <r_i_glide_einternal>  (1) 
3.259731287880836

>  <r_i_glide_emodel>  (1) 
-28.322665983268003

>  <r_i_glide_emodel_strain>  (1) 
0

>  <r_i_glide_energy>  (1) 
-24.101799069653296

>  <r_i_glide_erotb>  (1) 
0.20077648214602295

>  <r_i_glide_esite>  (1) 
-0.0098547279016685252

>  <r_i_glide_evdw>  (1) 
-24.154333469167419

>  <r_i_glide_gscore>  (1) 
-3.0909417682046918

>  <r_i_glide_gscore_strain>  (1) 
0

>  <r_i_glide_hbond>  (1) 
0

>  <r_i_glide_ligand_efficiency>  (1) 
-0.099707798974344897

>  <r_i_glide_ligand_efficiency_ln>  (1) 
-0.69710209471919249

>  <r_i_glide_ligand_efficiency_sa>  (1) 
-0.31322015059053748

>  <r_i_glide_lipo>  (1) 
-1.2288922248607372

>  <r_i_glide_metal>  (1) 
-0

>  <r_i_glide_rewards>  (1) 
-0.85313478405705623

>  <r_lp_Energy>  (1) 
61.855367999999999

>  <r_lp_tautomer_probability>  (1) 
1

>  <s_epik_cmdline>  (1) 
J2VwaWtfcHl0aG9uJywgJy1waHQnLCAnMS4wJywgJy1waCcsICc3LjQnLCAnLXRuJywgJzgnLCAnLW1hJywgJzUwMCcsICctaW1hZScsICc8aW5maWxlLm1hZT4nLCAnLW9tYWUnLCAnPG91dGZpbGUubWFlPic=

>  <s_epik_input>  (1) 
Tz1DKFtDSDNdKVtDSDJdW0NAQEhdKFtDSDJdW0NIM10pW0NAQEhdKFtDSDJdL1tDSF09W0NIXVwxKU4oW0NIM10pW0NIMl1DKEMyPU8pPUMxW0NIXT1DKFtDQEhdMjMpQz00QyhTMyk9W0NIXVtDQEhdKFtPSF0pQyhGKShGKVtDSF00

>  <s_glide_docking_method>  (1) 
confgen

>  <s_i_glide_gridfile>  (1) 
gpcr_drd2_6luq_protein_autoprepared_prepared

>  <s_lp_Force_Field>  (1) 
S-OPLS

>  <s_lp_Variant>  (1) 
DiffSBDD_80_num_sample_100-4

>  <s_m_source_file>  (1) 
generated__ligand_DiffSBDD_2026-05-06_prepared.sdf

>  <GenAI_Model>  (1) 
DiffSBDD

>  <Protein>  (1) 
generic_title2

$$$$
DiffSBDD_85_num_sample_100
     RDKit          3D

  0  0  0  0  0  0  0  0  0  0999 V3000
M  V30 BEGIN CTAB
M  V30 COUNTS 86 88 0 0 1
M  V30 BEGIN ATOM
M  V30 1 O 4.634901 1.183568 -19.891673 0
M  V30 2 C 7.614298 -1.506318 -18.503643 0
M  V30 3 C 14.817337 8.701235 -20.144257 0
M  V30 4 C 18.224942 7.383728 -20.522551 0
M  V30 5 C 8.965057 -1.019580 -20.625715 0
M  V30 6 C 11.230074 5.176615 -17.925653 0 CFG=1
M  V30 7 C 16.141943 7.546451 -22.025326 0 CFG=2
M  V30 8 C 16.834226 5.959115 -22.142647 0
M  V30 9 C 12.317406 6.105839 -17.329491 0 CFG=2
M  V30 10 C 15.396466 8.144382 -18.813430 0 CFG=2
M  V30 11 C 11.012829 2.842662 -18.959328 0 CFG=2
M  V30 12 C 9.851204 0.648347 -18.203087 0
M  V30 13 C 14.280452 7.723566 -17.823778 0
M  V30 14 C 16.382277 9.153516 -18.171462 0
M  V30 15 C 11.895011 1.986270 -19.892167 0
M  V30 16 C 10.375539 5.876800 -19.003905 0
M  V30 17 C 18.264068 8.810110 -19.948248 0 CFG=1
M  V30 18 O 9.290879 2.766231 -17.243172 0
M  V30 19 C 17.254823 7.031697 -21.387254 0
M  V30 20 O 8.701850 0.706492 -18.928231 0
M  V30 21 C 19.236525 6.385269 -20.158327 0
M  V30 22 C 14.810552 7.689151 -21.303370 0
M  V30 23 C 17.890435 8.895389 -18.433977 0 CFG=1
M  V30 24 C 13.357532 6.608871 -18.356506 0
M  V30 25 C 6.792458 0.160560 -20.212975 0
M  V30 26 C 20.242190 6.619769 -19.294658 0
M  V30 27 C 5.759058 0.685838 -19.199443 0 CFG=2
M  V30 28 C 8.053075 -0.424336 -19.531238 0 CFG=2
M  V30 29 C 5.338514 -0.418911 -18.218690 0
M  V30 30 C 18.718389 9.953936 -17.674240 0
M  V30 31 O 12.989075 5.390622 -16.306496 0
M  V30 32 C 6.567778 -0.992628 -17.498767 0
M  V30 33 O 10.445822 -0.382295 -17.891680 0
M  V30 34 N 11.872555 3.939119 -18.438851 0 CHG=1
M  V30 35 C 10.368459 2.033795 -17.794512 0 CFG=2
M  V30 36 O 19.511585 9.413780 -20.245989 0
M  V30 37 H 4.314635 0.522885 -20.492174 0
M  V30 38 H 8.465914 -1.920929 -17.965299 0
M  V30 39 H 7.181602 -2.350570 -19.042688 0
M  V30 40 H 13.798738 9.050186 -19.969751 0
M  V30 41 H 15.343467 9.595745 -20.476250 0
M  V30 42 H 8.463733 -1.827198 -21.159835 0
M  V30 43 H 9.243192 -0.264168 -21.361202 0
M  V30 44 H 9.885078 -1.430703 -20.216488 0
M  V30 45 H 10.569507 4.913013 -17.100621 0
M  V30 46 H 16.290033 8.231573 -22.857817 0
M  V30 47 H 16.290189 5.139388 -21.678512 0
M  V30 48 H 17.335849 5.708380 -23.074964 0
M  V30 49 H 11.834831 6.969253 -16.869718 0
M  V30 50 H 15.956110 7.231959 -19.012625 0
M  V30 51 H 10.226276 3.258752 -19.588368 0
M  V30 52 H 13.683181 8.591436 -17.543290 0
M  V30 53 H 14.742278 7.367577 -16.903502 0
M  V30 54 H 16.119179 10.169290 -18.466160 0
M  V30 55 H 16.241780 9.148440 -17.091713 0
M  V30 56 H 11.312166 1.245705 -20.441295 0
M  V30 57 H 12.389797 2.603261 -20.643284 0
M  V30 58 H 12.670205 1.455524 -19.337675 0
M  V30 59 H 10.071765 6.875453 -18.691667 0
M  V30 60 H 10.912780 5.982373 -19.946874 0
M  V30 61 H 9.457881 5.325346 -19.207560 0
M  V30 62 H 17.559372 9.424949 -20.505828 0
M  V30 63 H 8.555884 2.701990 -17.837305 0
M  V30 64 H 19.171786 5.404608 -20.607789 0
M  V30 65 H 14.479763 6.709840 -20.959260 0
M  V30 66 H 14.074848 8.007217 -22.042766 0
M  V30 67 H 18.130769 7.939788 -17.966908 0
M  V30 68 H 13.965021 5.775143 -18.709985 0
M  V30 69 H 12.834813 6.999627 -19.227595 0
M  V30 70 H 6.323654 -0.610159 -20.827402 0
M  V30 71 H 7.075310 0.961737 -20.897585 0
M  V30 72 H 20.961931 5.848019 -19.061937 0
M  V30 73 H 20.360280 7.576534 -18.812152 0
M  V30 74 H 6.183703 1.518021 -18.636699 0
M  V30 75 H 4.634942 -0.029800 -17.482999 0
M  V30 76 H 4.819428 -1.217535 -18.751021 0
M  V30 77 H 18.634834 10.939071 -18.132638 0
M  V30 78 H 18.394811 10.045813 -16.640210 0
M  V30 79 H 19.776669 9.692966 -17.653074 0
M  V30 80 H 12.413770 5.280210 -15.559403 0
M  V30 81 H 7.013054 -0.228300 -16.860444 0
M  V30 82 H 6.260809 -1.803220 -16.836399 0
M  V30 83 H 12.449151 3.579562 -17.689520 0
M  V30 84 H 11.117865 1.876852 -17.020098 0
M  V30 85 H 19.677232 9.316102 -21.171333 0
M  V30 86 H 12.488231 4.226803 -19.184751 0
M  V30 END ATOM
M  V30 BEGIN BOND
M  V30 1 1 8 7
M  V30 2 1 9 6
M  V30 3 1 10 3
M  V30 4 1 13 10
M  V30 5 1 14 10
M  V30 6 1 15 11
M  V30 7 1 16 6
M  V30 8 1 17 4
M  V30 9 2 19 4
M  V30 10 1 19 7
M  V30 11 1 19 8
M  V30 12 1 20 12
M  V30 13 1 21 4
M  V30 14 1 22 3
M  V30 15 1 22 7
M  V30 16 1 23 14
M  V30 17 1 23 17
M  V30 18 1 24 9
M  V30 19 1 24 13
M  V30 20 2 26 21
M  V30 21 1 27 1
M  V30 22 1 27 25
M  V30 23 1 28 2
M  V30 24 1 28 5
M  V30 25 1 28 20 CFG=1
M  V30 26 1 28 25
M  V30 27 1 29 27
M  V30 28 1 30 23
M  V30 29 1 31 9
M  V30 30 1 32 2
M  V30 31 1 32 29
M  V30 32 2 33 12
M  V30 33 1 34 6
M  V30 34 1 34 11
M  V30 35 1 35 11
M  V30 36 1 35 12
M  V30 37 1 35 18
M  V30 38 1 36 17
M  V30 39 1 37 1
M  V30 40 1 38 2
M  V30 41 1 39 2
M  V30 42 1 40 3
M  V30 43 1 41 3
M  V30 44 1 42 5
M  V30 45 1 43 5
M  V30 46 1 44 5
M  V30 47 1 6 45 CFG=1
M  V30 48 1 7 46 CFG=3
M  V30 49 1 47 8
M  V30 50 1 48 8
M  V30 51 1 9 49 CFG=1
M  V30 52 1 10 50 CFG=3
M  V30 53 1 11 51 CFG=3
M  V30 54 1 52 13
M  V30 55 1 53 13
M  V30 56 1 54 14
M  V30 57 1 55 14
M  V30 58 1 56 15
M  V30 59 1 57 15
M  V30 60 1 58 15
M  V30 61 1 59 16
M  V30 62 1 60 16
M  V30 63 1 61 16
M  V30 64 1 17 62 CFG=3
M  V30 65 1 63 18
M  V30 66 1 64 21
M  V30 67 1 65 22
M  V30 68 1 66 22
M  V30 69 1 23 67 CFG=1
M  V30 70 1 68 24
M  V30 71 1 69 24
M  V30 72 1 70 25
M  V30 73 1 71 25
M  V30 74 1 72 26
M  V30 75 1 73 26
M  V30 76 1 27 74 CFG=1
M  V30 77 1 75 29
M  V30 78 1 76 29
M  V30 79 1 77 30
M  V30 80 1 78 30
M  V30 81 1 79 30
M  V30 82 1 80 31
M  V30 83 1 81 32
M  V30 84 1 82 32
M  V30 85 1 83 34
M  V30 86 1 35 84 CFG=1
M  V30 87 1 85 36
M  V30 88 1 86 34
M  V30 END BOND
M  V30 END CTAB
M  END
>  <i_epik_Tot_Q>  (1) 
1

>  <i_epik_Tot_abs_Q>  (1) 
1

>  <i_i_glide_confnum>  (1) 
561

>  <i_i_glide_lignum>  (1) 
174

>  <i_i_glide_posenum>  (1) 
37

>  <i_i_glide_rotatable_bonds>  (1) 
15

>  <i_lp_mmshare_version>  (1) 
72125

>  <i_m_source_file_index>  (1) 
86

>  <i_f3d_flags>  (1) 
0

>  <num_sample>  (1) 
100

>  <b_lp_Chiralities_Consistent>  (1) 
1

>  <r_epik_Charging_Adjusted_Penalty>  (1) 
0.062696987853435748

>  <r_epik_Ionization_Penalty>  (1) 
0.034019236300638377

>  <r_epik_Ionization_Penalty_Charging>  (1) 
0.03134849392671793

>  <r_epik_Ionization_Penalty_Neutral>  (1) 
0.0026707423739204469

>  <r_epik_State_Penalty>  (1) 
0.031348493926717819

>  <r_glide_ring_energy>  (1) 
0

>  <r_i_docking_score>  (1) 
-3.0853072099252037

>  <r_i_glide_ecoul>  (1) 
-5.6530272580338083

>  <r_i_glide_eff_state_penalty>  (1) 
0.031348493926717819

>  <r_i_glide_einternal>  (1) 
11.736582981634577

>  <r_i_glide_emodel>  (1) 
-30.203168040719316

>  <r_i_glide_emodel_strain>  (1) 
0.09471529814771884

>  <r_i_glide_energy>  (1) 
-30.766224195690601

>  <r_i_glide_erotb>  (1) 
0.87027123501495496

>  <r_i_glide_esite>  (1) 
0

>  <r_i_glide_evdw>  (1) 
-25.113196937656792

>  <r_i_glide_gscore>  (1) 
-3.1166557038519214

>  <r_i_glide_gscore_strain>  (1) 
0

>  <r_i_glide_hbond>  (1) 
-0.39000677723407151

>  <r_i_glide_ligand_efficiency>  (1) 
-0.085702978053477874

>  <r_i_glide_ligand_efficiency_ln>  (1) 
-0.67313067783776703

>  <r_i_glide_ligand_efficiency_sa>  (1) 
-0.28298499854619685

>  <r_i_glide_lipo>  (1) 
-1.3801983717572086

>  <r_i_glide_metal>  (1) 
-0

>  <r_i_glide_rewards>  (1) 
-0.11310785428768537

>  <r_lp_Energy>  (1) 
47.724364000000001

>  <s_epik_Chemistry_Notes>  (1) 
This compound has an ester and may undergo hydrolysis at high or low pH.

>  <s_epik_cmdline>  (1) 
J2VwaWtfcHl0aG9uJywgJy1waHQnLCAnMS4wJywgJy1waCcsICc3LjQnLCAnLXRuJywgJzgnLCAnLW1hJywgJzUwMCcsICctaW1hZScsICc8aW5maWxlLm1hZT4nLCAnLW9tYWUnLCAnPG91dGZpbGUubWFlPic=

>  <s_epik_input>  (1) 
W09IXVtDQEhdKFtDSDJdMSlbQ0gyXVtDSDJdW0NIMl1bQ0BdMShbQ0gzXSlPQyg9TylbQ0BIXShbT0hdKVtDQEhdKFtDSDNdKVtOSF1bQ0BIXShbQ0gzXSlbQ0BASF0oW09IXSlbQ0gyXVtDSDJdW0NAQEhdKFtDSDJdW0NIMl0yKVtDSDJdW0NASF0oW0NIM10pW0NAQEhdKFtPSF0pL0MoPUMoXFtDSF0yMylbQ0gyXTMpW0NIXT1bQ0gyXQ==

>  <s_glide_docking_method>  (1) 
confgen

>  <s_i_glide_gridfile>  (1) 
gpcr_drd2_6luq_protein_autoprepared_prepared

>  <s_lp_Force_Field>  (1) 
S-OPLS

>  <s_lp_Variant>  (1) 
DiffSBDD_85_num_sample_100-1

>  <s_m_source_file>  (1) 
generated__ligand_DiffSBDD_2026-05-06_prepared.sdf

>  <GenAI_Model>  (1) 
DiffSBDD

>  <Protein>  (1) 
generic_title2

$$$$
DiffSBDD_55_num_sample_100
     RDKit          3D

  0  0  0  0  0  0  0  0  0  0999 V3000
M  V30 BEGIN CTAB
M  V30 COUNTS 50 53 0 0 1
M  V30 BEGIN ATOM
M  V30 1 O 9.153075 7.314778 -7.173184 0
M  V30 2 C 7.887455 5.241842 -18.462327 0
M  V30 3 C 8.865406 4.609831 -10.721747 0
M  V30 4 C 6.423506 5.854432 -12.028666 0
M  V30 5 C 10.362048 7.059024 -10.774309 0 CFG=2
M  V30 6 C 9.930277 6.536410 -9.402741 0 CFG=1
M  V30 7 S 6.234829 6.169345 -16.520999 0
M  V30 8 C 6.403221 5.513500 -18.204580 0
M  V30 9 C 8.501622 4.903444 -17.113047 0
M  V30 10 C 11.434839 7.540642 -6.727698 0
M  V30 11 N 8.922130 5.305121 -12.005684 0
M  V30 12 C 9.738903 7.713914 -8.408710 0 CFG=2
M  V30 13 C 8.716545 5.588329 -9.543021 0 CFG=2
M  V30 14 C 11.045630 8.352169 -7.943166 0
M  V30 15 C 10.157025 6.845886 -6.291619 0
M  V30 16 C 7.431224 4.168118 -14.975737 0
M  V30 17 C 7.697341 5.467575 -12.806898 0 CFG=1
M  V30 18 C 7.727474 5.359677 -15.881453 0 CFG=2
M  V30 19 C 9.415930 7.798216 -11.685108 0
M  V30 20 O 9.566883 4.296075 -17.021932 0
M  V30 21 O 8.499746 4.907315 -8.330471 0
M  V30 22 C 7.425253 4.215086 -13.626352 0
M  V30 23 C 9.871676 6.409225 -12.059362 0 CFG=1
M  V30 24 H 8.032110 4.432139 -19.178043 0
M  V30 25 H 8.379006 6.133356 -18.851914 0
M  V30 26 H 9.778902 4.031376 -10.587019 0
M  V30 27 H 8.050024 3.889648 -10.728262 0
M  V30 28 H 5.580237 5.976505 -12.709242 0
M  V30 29 H 6.141029 5.097417 -11.297117 0
M  V30 30 H 6.532236 6.799713 -11.500757 0
M  V30 31 H 11.389308 7.416276 -10.794410 0
M  V30 32 H 10.742219 5.922393 -9.024220 0
M  V30 33 H 5.835015 4.586691 -18.291668 0
M  V30 34 H 5.989214 6.217380 -18.926925 0
M  V30 35 H 11.834833 8.176975 -5.938839 0
M  V30 36 H 12.190454 6.799269 -6.989826 0
M  V30 37 H 9.091815 8.465697 -8.861850 0
M  V30 38 H 7.834857 6.169275 -9.732810 0
M  V30 39 H 11.823328 8.388975 -8.705690 0
M  V30 40 H 10.857019 9.369181 -7.614993 0
M  V30 41 H 9.893897 7.061832 -5.256593 0
M  V30 42 H 10.262145 5.769352 -6.395005 0
M  V30 43 H 7.216607 3.232028 -15.470484 0
M  V30 44 H 7.864443 6.295349 -13.489927 0
M  V30 45 H 8.343003 6.102098 -15.379473 0
M  V30 46 H 9.814431 8.602589 -12.291694 0
M  V30 47 H 8.401556 7.952146 -11.330809 0
M  V30 48 H 8.283850 5.577041 -7.690997 0
M  V30 49 H 7.210422 3.315790 -13.067669 0
M  V30 50 H 10.563284 6.307513 -12.893519 0
M  V30 END ATOM
M  V30 BEGIN BOND
M  V30 1 1 6 5
M  V30 2 1 8 2
M  V30 3 1 8 7
M  V30 4 1 9 2
M  V30 5 1 11 3
M  V30 6 1 12 1
M  V30 7 1 12 6
M  V30 8 1 13 3
M  V30 9 1 13 6
M  V30 10 1 14 10
M  V30 11 1 14 12
M  V30 12 1 15 1
M  V30 13 1 15 10
M  V30 14 1 17 4
M  V30 15 1 17 11
M  V30 16 1 18 7
M  V30 17 1 18 9
M  V30 18 1 18 16
M  V30 19 1 19 5
M  V30 20 2 20 9
M  V30 21 1 21 13
M  V30 22 2 22 16
M  V30 23 1 22 17
M  V30 24 1 23 5
M  V30 25 1 23 11
M  V30 26 1 23 19
M  V30 27 1 24 2
M  V30 28 1 25 2
M  V30 29 1 26 3
M  V30 30 1 27 3
M  V30 31 1 28 4
M  V30 32 1 29 4
M  V30 33 1 30 4
M  V30 34 1 5 31 CFG=1
M  V30 35 1 6 32 CFG=1
M  V30 36 1 33 8
M  V30 37 1 34 8
M  V30 38 1 35 10
M  V30 39 1 36 10
M  V30 40 1 12 37 CFG=3
M  V30 41 1 13 38 CFG=3
M  V30 42 1 39 14
M  V30 43 1 40 14
M  V30 44 1 41 15
M  V30 45 1 42 15
M  V30 46 1 43 16
M  V30 47 1 17 44 CFG=3
M  V30 48 1 18 45 CFG=1
M  V30 49 1 46 19
M  V30 50 1 47 19
M  V30 51 1 48 21
M  V30 52 1 49 22
M  V30 53 1 23 50 CFG=3
M  V30 END BOND
M  V30 END CTAB
M  END
>  <i_epik_Tot_Q>  (1) 
0

>  <i_epik_Tot_abs_Q>  (1) 
0

>  <i_i_glide_confnum>  (1) 
210

>  <i_i_glide_lignum>  (1) 
111

>  <i_i_glide_posenum>  (1) 
375

>  <i_i_glide_rotatable_bonds>  (1) 
5

>  <i_lp_mmshare_version>  (1) 
72125

>  <i_m_source_file_index>  (1) 
56

>  <i_f3d_flags>  (1) 
0

>  <num_sample>  (1) 
100

>  <b_lp_Chiralities_Consistent>  (1) 
1

>  <r_epik_Charging_Adjusted_Penalty>  (1) 
1.1351003249830234

>  <r_epik_Ionization_Penalty>  (1) 
1.13510036387319

>  <r_epik_Ionization_Penalty_Charging>  (1) 
0

>  <r_epik_Ionization_Penalty_Neutral>  (1) 
1.13510036387319

>  <r_epik_State_Penalty>  (1) 
1.1351003249830234

>  <r_glide_ring_energy>  (1) 
1.6022130496984912

>  <r_i_docking_score>  (1) 
-3.078815935997417

>  <r_i_glide_ecoul>  (1) 
-0.073504391388558354

>  <r_i_glide_eff_state_penalty>  (1) 
1.1351003249830234

>  <r_i_glide_einternal>  (1) 
11.480198707784465

>  <r_i_glide_emodel>  (1) 
-31.049353179242885

>  <r_i_glide_emodel_strain>  (1) 
1.2519960553564857

>  <r_i_glide_energy>  (1) 
-30.154187235807697

>  <r_i_glide_erotb>  (1) 
0.4978175189556282

>  <r_i_glide_esite>  (1) 
0

>  <r_i_glide_evdw>  (1) 
-30.08068284441914

>  <r_i_glide_gscore>  (1) 
-4.2139162609804401

>  <r_i_glide_gscore_strain>  (1) 
0

>  <r_i_glide_hbond>  (1) 
0

>  <r_i_glide_ligand_efficiency>  (1) 
-0.13386156243467032

>  <r_i_glide_ligand_efficiency_ln>  (1) 
-0.74448561048360173

>  <r_i_glide_ligand_efficiency_sa>  (1) 
-0.38068447727929761

>  <r_i_glide_lipo>  (1) 
-1.574986811181553

>  <r_i_glide_metal>  (1) 
-0

>  <r_i_glide_rewards>  (1) 
-1.6216871678252742

>  <r_lp_Energy>  (1) 
16.161977

>  <r_lp_tautomer_probability>  (1) 
0.99995000000000001

>  <s_epik_cmdline>  (1) 
J2VwaWtfcHl0aG9uJywgJy1waHQnLCAnMS4wJywgJy1waCcsICc3LjQnLCAnLXRuJywgJzgnLCAnLW1hJywgJzUwMCcsICctaW1hZScsICc8aW5maWxlLm1hZT4nLCAnLW9tYWUnLCAnPG91dGZpbGUubWFlPic=

>  <s_epik_input>  (1) 
W0NIMl0xW0NIMl1bQ0gyXU9bQ0BASF0xW0NASF0yW0NASF0oW09IXSlbQ0gyXU4oW0NASF0oW0NASF0yMylbQ0gyXTMpW0NASF0oW0NIM10pL1tDSF09W0NIXVxbQ0BASF00U1tDSDJdW0NIMl1DND1P

>  <s_glide_docking_method>  (1) 
confgen

>  <s_i_glide_gridfile>  (1) 
gpcr_drd2_6luq_protein_autoprepared_prepared

>  <s_lp_Force_Field>  (1) 
S-OPLS

>  <s_lp_Variant>  (1) 
DiffSBDD_55_num_sample_100-12

>  <s_m_source_file>  (1) 
generated__ligand_DiffSBDD_2026-05-06_prepared.sdf

>  <GenAI_Model>  (1) 
DiffSBDD

>  <Protein>  (1) 
generic_title2

$$$$
DiffSBDD_85_num_sample_100
     RDKit          3D

  0  0  0  0  0  0  0  0  0  0999 V3000
M  V30 BEGIN CTAB
M  V30 COUNTS 86 88 0 0 1
M  V30 BEGIN ATOM
M  V30 1 O 12.904886 9.769282 -4.655788 0
M  V30 2 C 10.226502 6.646644 -5.286618 0
M  V30 3 C 9.834365 4.799164 -18.243658 0
M  V30 4 C 6.392064 6.567312 -19.733927 0
M  V30 5 C 8.502505 8.357972 -6.291722 0
M  V30 6 C 7.727360 6.081106 -12.298653 0 CFG=1
M  V30 7 C 8.817876 5.872923 -20.348104 0 CFG=2
M  V30 8 C 8.427823 7.387298 -21.083630 0
M  V30 9 C 8.569026 5.253143 -13.311146 0 CFG=2
M  V30 10 C 8.623415 4.868326 -17.281041 0 CFG=2
M  V30 11 C 9.644905 6.961567 -10.885236 0 CFG=2
M  V30 12 C 9.835083 6.752800 -8.277147 0
M  V30 13 C 9.069757 4.787344 -15.802744 0
M  V30 14 C 7.582713 3.774802 -17.618238 0
M  V30 15 C 9.366292 8.458065 -11.012494 0
M  V30 16 C 6.295752 5.541306 -12.122144 0
M  V30 17 C 5.912830 5.372369 -18.871917 0 CFG=1
M  V30 18 O 11.722842 7.369298 -9.659521 0
M  V30 19 C 7.633544 6.597442 -20.271837 0
M  V30 20 O 10.419458 7.686457 -7.469054 0
M  V30 21 C 5.497203 7.697121 -20.000511 0
M  V30 22 C 9.867710 5.951158 -19.255374 0
M  V30 23 C 6.717390 4.025128 -18.879756 0 CFG=2
M  V30 24 C 8.021074 5.245276 -14.759017 0
M  V30 25 C 10.754553 9.159172 -5.591147 0
M  V30 26 C 4.252642 7.793269 -19.499593 0
M  V30 27 C 12.182522 8.764361 -5.269344 0 CFG=2
M  V30 28 C 9.968684 7.939681 -6.144446 0 CFG=2
M  V30 29 C 12.234743 7.591819 -4.281410 0
M  V30 30 C 5.805839 2.803596 -19.128141 0
M  V30 31 O 8.703428 3.931121 -12.825605 0
M  V30 32 C 11.684697 6.361849 -4.980086 0
M  V30 33 O 8.891625 6.026922 -7.966783 0
M  V30 34 N 8.389413 6.169240 -10.968324 0 CHG=1
M  V30 35 C 10.491033 6.648840 -9.627405 0 CFG=2
M  V30 36 O 5.608633 5.795546 -17.553545 0
M  V30 37 H 12.996481 10.480538 -5.270903 0
M  V30 38 H 9.755707 5.769304 -5.713838 0
M  V30 39 H 9.834631 6.710247 -4.292277 0
M  V30 40 H 10.762304 4.852423 -17.673313 0
M  V30 41 H 9.882202 3.840830 -18.764112 0
M  V30 42 H 8.134167 8.969216 -5.496676 0
M  V30 43 H 8.328426 8.936071 -7.199445 0
M  V30 44 H 7.854208 7.489998 -6.291680 0
M  V30 45 H 7.629402 7.093739 -12.688363 0
M  V30 46 H 8.915693 5.028437 -21.028234 0
M  V30 47 H 8.953456 8.254508 -20.694787 0
M  V30 48 H 8.287680 7.383509 -22.161995 0
M  V30 49 H 9.570965 5.670257 -13.376379 0
M  V30 50 H 8.170249 5.850141 -17.394199 0
M  V30 51 H 10.294039 6.679181 -11.709946 0
M  V30 52 H 9.957740 5.405871 -15.668837 0
M  V30 53 H 9.378630 3.769322 -15.596383 0
M  V30 54 H 8.096165 2.817368 -17.723684 0
M  V30 55 H 6.919590 3.625754 -16.770217 0
M  V30 56 H 10.299427 8.969273 -10.796606 0
M  V30 57 H 9.040164 8.732529 -12.016206 0
M  V30 58 H 8.635002 8.827882 -10.295340 0
M  V30 59 H 5.757812 5.514603 -13.069843 0
M  V30 60 H 6.289773 4.533258 -11.707349 0
M  V30 61 H 5.719627 6.175081 -11.445876 0
M  V30 62 H 4.947653 5.130482 -19.317810 0
M  V30 63 H 12.101530 7.321236 -8.793440 0
M  V30 64 H 5.855099 8.497138 -20.631806 0
M  V30 65 H 9.779179 6.905951 -18.737434 0
M  V30 66 H 10.844278 5.970436 -19.737952 0
M  V30 67 H 7.361289 3.989859 -19.750025 0
M  V30 68 H 7.123486 4.628709 -14.814166 0
M  V30 69 H 7.707164 6.257235 -15.019036 0
M  V30 70 H 10.309972 9.573190 -4.693016 0
M  V30 71 H 10.746554 9.981665 -6.303118 0
M  V30 72 H 3.628679 8.646300 -19.725498 0
M  V30 73 H 3.844763 7.027762 -18.860436 0
M  V30 74 H 12.634536 8.569352 -6.243359 0
M  V30 75 H 13.240372 7.413208 -3.891630 0
M  V30 76 H 11.649161 7.820213 -3.391889 0
M  V30 77 H 5.148986 2.576283 -18.291823 0
M  V30 78 H 5.179486 2.939353 -20.009963 0
M  V30 79 H 6.401068 1.906939 -19.300345 0
M  V30 80 H 7.887813 3.466526 -12.944519 0
M  V30 81 H 12.234735 6.118586 -5.890177 0
M  V30 82 H 11.768006 5.504257 -4.317609 0
M  V30 83 H 8.564709 5.226551 -10.651099 0
M  V30 84 H 10.634755 5.581921 -9.565885 0
M  V30 85 H 6.420432 5.936045 -17.094112 0
M  V30 86 H 7.743219 6.623541 -10.317136 0
M  V30 END ATOM
M  V30 BEGIN BOND
M  V30 1 1 8 7
M  V30 2 1 9 6
M  V30 3 1 10 3
M  V30 4 1 13 10
M  V30 5 1 14 10
M  V30 6 1 15 11
M  V30 7 1 16 6
M  V30 8 1 17 4
M  V30 9 2 19 4
M  V30 10 1 19 7
M  V30 11 1 19 8
M  V30 12 1 20 12
M  V30 13 1 21 4
M  V30 14 1 22 3
M  V30 15 1 22 7
M  V30 16 1 23 14
M  V30 17 1 23 17
M  V30 18 1 24 9
M  V30 19 1 24 13
M  V30 20 2 26 21
M  V30 21 1 27 1
M  V30 22 1 27 25
M  V30 23 1 28 2
M  V30 24 1 28 5
M  V30 25 1 28 20 CFG=3
M  V30 26 1 28 25
M  V30 27 1 29 27
M  V30 28 1 30 23
M  V30 29 1 31 9
M  V30 30 1 32 2
M  V30 31 1 32 29
M  V30 32 2 33 12
M  V30 33 1 34 6
M  V30 34 1 34 11
M  V30 35 1 35 11
M  V30 36 1 35 12
M  V30 37 1 35 18
M  V30 38 1 36 17
M  V30 39 1 37 1
M  V30 40 1 38 2
M  V30 41 1 39 2
M  V30 42 1 40 3
M  V30 43 1 41 3
M  V30 44 1 42 5
M  V30 45 1 43 5
M  V30 46 1 44 5
M  V30 47 1 6 45 CFG=3
M  V30 48 1 7 46 CFG=3
M  V30 49 1 47 8
M  V30 50 1 48 8
M  V30 51 1 9 49 CFG=3
M  V30 52 1 10 50 CFG=1
M  V30 53 1 11 51 CFG=3
M  V30 54 1 52 13
M  V30 55 1 53 13
M  V30 56 1 54 14
M  V30 57 1 55 14
M  V30 58 1 56 15
M  V30 59 1 57 15
M  V30 60 1 58 15
M  V30 61 1 59 16
M  V30 62 1 60 16
M  V30 63 1 61 16
M  V30 64 1 17 62 CFG=3
M  V30 65 1 63 18
M  V30 66 1 64 21
M  V30 67 1 65 22
M  V30 68 1 66 22
M  V30 69 1 23 67 CFG=3
M  V30 70 1 68 24
M  V30 71 1 69 24
M  V30 72 1 70 25
M  V30 73 1 71 25
M  V30 74 1 72 26
M  V30 75 1 73 26
M  V30 76 1 27 74 CFG=3
M  V30 77 1 75 29
M  V30 78 1 76 29
M  V30 79 1 77 30
M  V30 80 1 78 30
M  V30 81 1 79 30
M  V30 82 1 80 31
M  V30 83 1 81 32
M  V30 84 1 82 32
M  V30 85 1 83 34
M  V30 86 1 35 84 CFG=3
M  V30 87 1 85 36
M  V30 88 1 86 34
M  V30 END BOND
M  V30 END CTAB
M  END
>  <i_epik_Tot_Q>  (1) 
1

>  <i_epik_Tot_abs_Q>  (1) 
1

>  <i_i_glide_confnum>  (1) 
2347

>  <i_i_glide_lignum>  (1) 
175

>  <i_i_glide_posenum>  (1) 
307

>  <i_i_glide_rotatable_bonds>  (1) 
15

>  <i_lp_mmshare_version>  (1) 
72125

>  <i_m_source_file_index>  (1) 
86

>  <i_f3d_flags>  (1) 
0

>  <num_sample>  (1) 
100

>  <b_lp_Chiralities_Consistent>  (1) 
1

>  <r_epik_Charging_Adjusted_Penalty>  (1) 
0.062696987853435748

>  <r_epik_Ionization_Penalty>  (1) 
0.034019236300638377

>  <r_epik_Ionization_Penalty_Charging>  (1) 
0.03134849392671793

>  <r_epik_Ionization_Penalty_Neutral>  (1) 
0.0026707423739204469

>  <r_epik_State_Penalty>  (1) 
0.031348493926717819

>  <r_glide_ring_energy>  (1) 
0

>  <r_i_docking_score>  (1) 
-3.0527184215093244

>  <r_i_glide_ecoul>  (1) 
-3.9086105759296617

>  <r_i_glide_eff_state_penalty>  (1) 
0.031348493926717819

>  <r_i_glide_einternal>  (1) 
6.8557543392790379

>  <r_i_glide_emodel>  (1) 
-11.664264583706629

>  <r_i_glide_emodel_strain>  (1) 
1.4134211790313742

>  <r_i_glide_energy>  (1) 
-11.33995750884197

>  <r_i_glide_erotb>  (1) 
0.87027123501495496

>  <r_i_glide_esite>  (1) 
-0.15548582140808925

>  <r_i_glide_evdw>  (1) 
-7.431346932912307

>  <r_i_glide_gscore>  (1) 
-3.0840669154360421

>  <r_i_glide_gscore_strain>  (1) 
0

>  <r_i_glide_hbond>  (1) 
-0.20000000000000001

>  <r_i_glide_ligand_efficiency>  (1) 
-0.084797733930814564

>  <r_i_glide_ligand_efficiency_ln>  (1) 
-0.66602068465273689

>  <r_i_glide_ligand_efficiency_sa>  (1) 
-0.27999594831067315

>  <r_i_glide_lipo>  (1) 
-2.1409938307468845

>  <r_i_glide_metal>  (1) 
-0

>  <r_i_glide_rewards>  (1) 
-0.49999956526095835

>  <r_lp_Energy>  (1) 
44.733196

>  <s_epik_Chemistry_Notes>  (1) 
This compound has an ester and may undergo hydrolysis at high or low pH.

>  <s_epik_cmdline>  (1) 
J2VwaWtfcHl0aG9uJywgJy1waHQnLCAnMS4wJywgJy1waCcsICc3LjQnLCAnLXRuJywgJzgnLCAnLW1hJywgJzUwMCcsICctaW1hZScsICc8aW5maWxlLm1hZT4nLCAnLW9tYWUnLCAnPG91dGZpbGUubWFlPic=

>  <s_epik_input>  (1) 
W09IXVtDQEhdKFtDSDJdMSlbQ0gyXVtDSDJdW0NIMl1bQ0BdMShbQ0gzXSlPQyg9TylbQ0BIXShbT0hdKVtDQEhdKFtDSDNdKVtOSF1bQ0BIXShbQ0gzXSlbQ0BASF0oW09IXSlbQ0gyXVtDSDJdW0NAQEhdKFtDSDJdW0NIMl0yKVtDSDJdW0NAQEhdKFtDSDNdKVtDQEBIXShbT0hdKS9DKD1DKFxbQ0hdMjMpW0NIMl0zKVtDSF09W0NIMl0=

>  <s_glide_docking_method>  (1) 
confgen

>  <s_i_glide_gridfile>  (1) 
gpcr_drd2_6luq_protein_autoprepared_prepared

>  <s_lp_Force_Field>  (1) 
S-OPLS

>  <s_lp_Variant>  (1) 
DiffSBDD_85_num_sample_100-2

>  <s_m_source_file>  (1) 
generated__ligand_DiffSBDD_2026-05-06_prepared.sdf

>  <GenAI_Model>  (1) 
DiffSBDD

>  <Protein>  (1) 
generic_title2

$$$$
DiffSBDD_69_num_sample_100
     RDKit          3D

  0  0  0  0  0  0  0  0  0  0999 V3000
M  V30 BEGIN CTAB
M  V30 COUNTS 57 59 0 0 1
M  V30 BEGIN ATOM
M  V30 1 C 8.236194 4.569298 -8.227669 0
M  V30 2 C 9.568739 5.069566 -18.382801 0
M  V30 3 C 10.327623 7.761612 -7.609470 0
M  V30 4 C 7.303861 2.346364 -13.362194 0 CFG=2
M  V30 5 N 7.911126 5.769300 -11.059748 0
M  V30 6 O 9.763933 5.778523 -9.764371 0
M  V30 7 O 8.154032 0.318947 -14.288522 0
M  V30 8 N 7.617155 5.301152 -13.472952 0
M  V30 9 C 7.367237 6.735779 -13.391795 0 CFG=1
M  V30 10 C 7.303587 5.779242 -18.095827 0
M  V30 11 C 9.883973 6.304545 -7.431738 0
M  V30 12 C 8.524019 5.792100 -18.787604 0
M  V30 13 C 7.191686 0.896373 -13.793720 0
M  V30 14 C 10.140721 6.142906 -20.140150 0
M  V30 15 O 10.654351 5.197982 -19.152482 0
M  V30 16 C 8.980861 5.849117 -8.572839 0 CFG=2
M  V30 17 O 8.751026 6.514573 -19.889461 0
M  V30 18 C 7.184549 4.978081 -16.937404 0
M  V30 19 F 6.025339 0.256217 -13.611562 0
M  V30 20 C 8.302280 4.200377 -16.501162 0
M  V30 21 C 9.507445 4.253487 -17.241583 0
M  V30 22 C 11.463067 8.122288 -6.655701 0 CFG=1
M  V30 23 O 10.019527 6.169278 -12.006139 0
M  V30 24 O 11.992654 9.369296 -7.030750 0
M  V30 25 O 6.192208 7.087429 -14.101100 0
M  V30 26 C 7.069039 3.326764 -14.549922 0 CFG=1
M  V30 27 C 9.294579 5.933422 -11.041140 0
M  V30 28 O 6.539188 4.572821 -14.110071 0
M  V30 29 O 8.539077 2.579930 -12.691696 0
M  V30 30 C 11.034840 8.229619 -5.192017 0
M  V30 31 C 7.087006 5.823724 -12.225531 0 CFG=2
M  V30 32 O 8.234838 3.401883 -15.373199 0
M  V30 33 H 7.523656 4.765581 -7.429674 0
M  V30 34 H 8.929228 3.800187 -7.891665 0
M  V30 35 H 7.654293 4.169319 -9.056501 0
M  V30 36 H 10.674720 7.906787 -8.633614 0
M  V30 37 H 9.479077 8.434835 -7.478997 0
M  V30 38 H 6.508709 2.502324 -12.631996 0
M  V30 39 H 7.468499 5.601291 -10.168596 0
M  V30 40 H 8.173745 7.465049 -13.358680 0
M  V30 41 H 6.470756 6.373990 -18.440229 0
M  V30 42 H 10.748973 5.642767 -7.375378 0
M  V30 43 H 9.353756 6.206352 -6.483695 0
M  V30 44 H 10.757819 7.042851 -20.122680 0
M  V30 45 H 10.212860 5.690929 -21.130333 0
M  V30 46 H 8.234838 6.598564 -8.691655 0
M  V30 47 H 6.254664 4.964872 -16.394333 0
M  V30 48 H 10.367323 3.677507 -16.932107 0
M  V30 49 H 12.234838 7.364931 -6.766904 0
M  V30 50 H 12.281305 9.311136 -7.929624 0
M  V30 51 H 5.614455 7.543888 -13.509488 0
M  V30 52 H 6.281564 2.892333 -15.161818 0
M  V30 53 H 8.707951 1.889592 -12.062608 0
M  V30 54 H 10.634546 7.285934 -4.821834 0
M  V30 55 H 10.267079 8.995036 -5.091666 0
M  V30 56 H 11.874823 8.505704 -4.553467 0
M  V30 57 H 6.036994 5.616824 -12.022313 0
M  V30 END ATOM
M  V30 BEGIN BOND
M  V30 1 1 9 8
M  V30 2 1 11 3
M  V30 3 2 12 2
M  V30 4 1 12 10
M  V30 5 1 13 4
M  V30 6 2 13 7
M  V30 7 1 15 2
M  V30 8 1 15 14
M  V30 9 1 16 1
M  V30 10 1 16 6
M  V30 11 1 16 11
M  V30 12 1 17 12
M  V30 13 1 17 14
M  V30 14 2 18 10
M  V30 15 1 19 13
M  V30 16 1 20 18
M  V30 17 1 21 2
M  V30 18 2 21 20
M  V30 19 1 22 3
M  V30 20 1 24 22
M  V30 21 1 25 9
M  V30 22 1 26 4
M  V30 23 1 27 5
M  V30 24 1 27 6
M  V30 25 2 27 23
M  V30 26 1 28 8
M  V30 27 1 28 26
M  V30 28 1 29 4
M  V30 29 1 30 22
M  V30 30 1 31 5
M  V30 31 1 31 8
M  V30 32 1 31 9
M  V30 33 1 32 20
M  V30 34 1 32 26
M  V30 35 1 33 1
M  V30 36 1 34 1
M  V30 37 1 35 1
M  V30 38 1 36 3
M  V30 39 1 37 3
M  V30 40 1 4 38 CFG=1
M  V30 41 1 39 5
M  V30 42 1 9 40 CFG=1
M  V30 43 1 41 10
M  V30 44 1 42 11
M  V30 45 1 43 11
M  V30 46 1 44 14
M  V30 47 1 45 14
M  V30 48 1 16 46 CFG=3
M  V30 49 1 47 18
M  V30 50 1 48 21
M  V30 51 1 22 49 CFG=1
M  V30 52 1 50 24
M  V30 53 1 51 25
M  V30 54 1 26 52 CFG=3
M  V30 55 1 53 29
M  V30 56 1 54 30
M  V30 57 1 55 30
M  V30 58 1 56 30
M  V30 59 1 31 57 CFG=1
M  V30 END BOND
M  V30 END CTAB
M  END
>  <i_epik_Tot_Q>  (1) 
0

>  <i_epik_Tot_abs_Q>  (1) 
0

>  <i_i_glide_confnum>  (1) 
2085

>  <i_i_glide_lignum>  (1) 
140

>  <i_i_glide_posenum>  (1) 
95

>  <i_i_glide_rotatable_bonds>  (1) 
16

>  <i_lp_mmshare_version>  (1) 
72125

>  <i_m_source_file_index>  (1) 
70

>  <i_f3d_flags>  (1) 
0

>  <num_sample>  (1) 
100

>  <b_lp_Chiralities_Consistent>  (1) 
1

>  <r_epik_Charging_Adjusted_Penalty>  (1) 
0.44341445758704578

>  <r_epik_Ionization_Penalty>  (1) 
0.44344869696236644

>  <r_epik_Ionization_Penalty_Charging>  (1) 
0

>  <r_epik_Ionization_Penalty_Neutral>  (1) 
0.44344869696236644

>  <r_epik_State_Penalty>  (1) 
0.44341445758704578

>  <r_glide_ring_energy>  (1) 
0

>  <r_i_docking_score>  (1) 
-3.0323062115999742

>  <r_i_glide_ecoul>  (1) 
-5.1980701305718782

>  <r_i_glide_eff_state_penalty>  (1) 
0.44341445758704578

>  <r_i_glide_einternal>  (1) 
9.9800128755066879

>  <r_i_glide_emodel>  (1) 
-41.74856289163759

>  <r_i_glide_emodel_strain>  (1) 
0.15474084776150221

>  <r_i_glide_energy>  (1) 
-37.346233333054606

>  <r_i_glide_erotb>  (1) 
1.0444707678755103

>  <r_i_glide_esite>  (1) 
-0.19111912527393288

>  <r_i_glide_evdw>  (1) 
-32.148163202482728

>  <r_i_glide_gscore>  (1) 
-3.4757206691870199

>  <r_i_glide_gscore_strain>  (1) 
0

>  <r_i_glide_hbond>  (1) 
-0.28073113615037293

>  <r_i_glide_ligand_efficiency>  (1) 
-0.094759569112499192

>  <r_i_glide_ligand_efficiency_ln>  (1) 
-0.67901601832273928

>  <r_i_glide_ligand_efficiency_sa>  (1) 
-0.30084287938646909

>  <r_i_glide_lipo>  (1) 
-1.3366648036076423

>  <r_i_glide_metal>  (1) 
-0

>  <r_i_glide_rewards>  (1) 
-0.32455769232066334

>  <r_lp_Energy>  (1) 
34.780937000000002

>  <r_lp_tautomer_probability>  (1) 
1

>  <s_epik_Chemistry_Notes>  (1) 
This compound has an ester and may undergo hydrolysis at high or low pH. This compound contains an acetal/aminal-like group ( X-CH(R)-Y where X, Y are N, S, or O) that may be acid/base labile, releasing an aldehyde. This compound has a N-S or N-O group and may undergo hydrolysis at high or low pH.

>  <s_epik_cmdline>  (1) 
J2VwaWtfcHl0aG9uJywgJy1waHQnLCAnMS4wJywgJy1waCcsICc3LjQnLCAnLXRuJywgJzgnLCAnLW1hJywgJzUwMCcsICctaW1hZScsICc8aW5maWxlLm1hZT4nLCAnLW9tYWUnLCAnPG91dGZpbGUubWFlPic=

>  <s_epik_input>  (1) 
W09IXVtDQEBIXShbQ0gzXSlbQ0gyXVtDSDJdW0NASF0oW0NIM10pT0MoPU8pW05IXVtDQEhdMVtDSF0oW09IXSlbTkBAXTFPW0NASF0oW0NAQEhdKEMoPU8pRilbT0hdKU9jKFtjSF0yKVtjSF1bY0hdYyhjMjMpT1tDSDJdTzM=

>  <s_glide_docking_method>  (1) 
confgen

>  <s_i_glide_gridfile>  (1) 
gpcr_drd2_6luq_protein_autoprepared_prepared

>  <s_lp_Force_Field>  (1) 
S-OPLS

>  <s_lp_Variant>  (1) 
DiffSBDD_69_num_sample_100-2

>  <s_m_source_file>  (1) 
generated__ligand_DiffSBDD_2026-05-06_prepared.sdf

>  <GenAI_Model>  (1) 
DiffSBDD

>  <Protein>  (1) 
generic_title2

$$$$
DiffSBDD_55_num_sample_100
     RDKit          3D

  0  0  0  0  0  0  0  0  0  0999 V3000
M  V30 BEGIN CTAB
M  V30 COUNTS 50 53 0 0 1
M  V30 BEGIN ATOM
M  V30 1 O 7.430222 4.701482 -9.496367 0
M  V30 2 C 6.093957 4.606013 -20.692806 0
M  V30 3 C 5.534881 5.021718 -13.673887 0
M  V30 4 C 6.501512 7.618755 -15.091605 0
M  V30 5 C 8.229762 4.262046 -13.079347 0 CFG=2
M  V30 6 C 7.288300 4.569439 -11.916455 0 CFG=1
M  V30 7 S 5.787401 7.273032 -20.298248 0
M  V30 8 C 5.220959 5.778663 -21.157281 0
M  V30 9 C 6.603931 4.978464 -19.307467 0
M  V30 10 C 9.637256 5.150488 -8.999443 0
M  V30 11 N 6.500086 5.120789 -14.773735 0
M  V30 12 C 7.991737 5.191298 -10.694567 0 CFG=2
M  V30 13 C 6.118574 5.476512 -12.333210 0 CFG=2
M  V30 14 C 9.434857 4.833069 -10.475208 0
M  V30 15 C 8.234917 5.156790 -8.424910 0
M  V30 16 C 5.040277 6.227338 -17.867087 0
M  V30 17 C 6.417030 6.230002 -15.733027 0 CFG=1
M  V30 18 C 6.228696 6.362283 -18.800464 0 CFG=2
M  V30 19 C 8.905133 5.369356 -13.839143 0
M  V30 20 O 7.279855 4.202213 -18.635177 0
M  V30 21 O 5.144347 5.404563 -11.315304 0
M  V30 22 C 5.121951 6.169474 -16.524064 0
M  V30 23 C 7.823681 4.555198 -14.514250 0 CFG=1
M  V30 24 H 5.533073 3.672111 -20.668111 0
M  V30 25 H 6.947971 4.470806 -21.357172 0
M  V30 26 H 5.214695 3.982966 -13.576476 0
M  V30 27 H 4.636733 5.593904 -13.892831 0
M  V30 28 H 6.427626 8.405194 -15.845504 0
M  V30 29 H 5.685008 7.769227 -14.384732 0
M  V30 30 H 7.435581 7.775033 -14.558884 0
M  V30 31 H 8.834363 3.370547 -12.928226 0
M  V30 32 H 6.877084 3.602561 -11.629441 0
M  V30 33 H 4.179366 5.593863 -20.893171 0
M  V30 34 H 5.270184 5.917569 -22.236741 0
M  V30 35 H 10.120232 6.117575 -8.855406 0
M  V30 36 H 10.244203 4.383510 -8.527648 0
M  V30 37 H 7.913592 6.278581 -10.702793 0
M  V30 38 H 6.441530 6.513792 -12.417342 0
M  V30 39 H 9.589318 3.768950 -10.654734 0
M  V30 40 H 10.094849 5.397065 -11.134103 0
M  V30 41 H 7.955691 6.169301 -8.143671 0
M  V30 42 H 8.117681 4.512090 -7.559260 0
M  V30 43 H 4.070392 6.177095 -18.337380 0
M  V30 44 H 7.255726 6.131106 -16.418922 0
M  V30 45 H 7.077210 6.847789 -18.323482 0
M  V30 46 H 9.931620 5.202199 -14.159132 0
M  V30 47 H 8.690943 6.375224 -13.489594 0
M  V30 48 H 5.570036 5.586860 -10.485825 0
M  V30 49 H 4.218929 6.077790 -15.950307 0
M  V30 50 H 8.130300 3.871157 -15.304993 0
M  V30 END ATOM
M  V30 BEGIN BOND
M  V30 1 1 6 5
M  V30 2 1 8 2
M  V30 3 1 8 7
M  V30 4 1 9 2
M  V30 5 1 11 3
M  V30 6 1 12 1
M  V30 7 1 12 6
M  V30 8 1 13 3
M  V30 9 1 13 6
M  V30 10 1 14 10
M  V30 11 1 14 12
M  V30 12 1 15 1
M  V30 13 1 15 10
M  V30 14 1 17 4
M  V30 15 1 17 11
M  V30 16 1 18 7
M  V30 17 1 18 9
M  V30 18 1 18 16
M  V30 19 1 19 5
M  V30 20 2 20 9
M  V30 21 1 21 13
M  V30 22 2 22 16
M  V30 23 1 22 17
M  V30 24 1 23 5
M  V30 25 1 23 11
M  V30 26 1 23 19
M  V30 27 1 24 2
M  V30 28 1 25 2
M  V30 29 1 26 3
M  V30 30 1 27 3
M  V30 31 1 28 4
M  V30 32 1 29 4
M  V30 33 1 30 4
M  V30 34 1 5 31 CFG=3
M  V30 35 1 6 32 CFG=1
M  V30 36 1 33 8
M  V30 37 1 34 8
M  V30 38 1 35 10
M  V30 39 1 36 10
M  V30 40 1 12 37 CFG=3
M  V30 41 1 13 38 CFG=3
M  V30 42 1 39 14
M  V30 43 1 40 14
M  V30 44 1 41 15
M  V30 45 1 42 15
M  V30 46 1 43 16
M  V30 47 1 17 44 CFG=3
M  V30 48 1 18 45 CFG=1
M  V30 49 1 46 19
M  V30 50 1 47 19
M  V30 51 1 48 21
M  V30 52 1 49 22
M  V30 53 1 23 50 CFG=3
M  V30 END BOND
M  V30 END CTAB
M  END
>  <i_epik_Tot_Q>  (1) 
0

>  <i_epik_Tot_abs_Q>  (1) 
0

>  <i_i_glide_confnum>  (1) 
218

>  <i_i_glide_lignum>  (1) 
111

>  <i_i_glide_posenum>  (1) 
181

>  <i_i_glide_rotatable_bonds>  (1) 
5

>  <i_lp_mmshare_version>  (1) 
72125

>  <i_m_source_file_index>  (1) 
56

>  <i_f3d_flags>  (1) 
0

>  <num_sample>  (1) 
100

>  <b_lp_Chiralities_Consistent>  (1) 
1

>  <r_epik_Charging_Adjusted_Penalty>  (1) 
1.1351003249830234

>  <r_epik_Ionization_Penalty>  (1) 
1.13510036387319

>  <r_epik_Ionization_Penalty_Charging>  (1) 
0

>  <r_epik_Ionization_Penalty_Neutral>  (1) 
1.13510036387319

>  <r_epik_State_Penalty>  (1) 
1.1351003249830234

>  <r_glide_ring_energy>  (1) 
1.6022130496984912

>  <r_i_docking_score>  (1) 
-3.0206328401412943

>  <r_i_glide_ecoul>  (1) 
-0.41063780600034749

>  <r_i_glide_eff_state_penalty>  (1) 
1.1351003249830234

>  <r_i_glide_einternal>  (1) 
8.0247631428874584

>  <r_i_glide_emodel>  (1) 
-26.505002742305134

>  <r_i_glide_emodel_strain>  (1) 
0.94382075492453055

>  <r_i_glide_energy>  (1) 
-23.682846042211487

>  <r_i_glide_erotb>  (1) 
0.4978175189556282

>  <r_i_glide_esite>  (1) 
0

>  <r_i_glide_evdw>  (1) 
-23.272208236211139

>  <r_i_glide_gscore>  (1) 
-4.1557331651243175

>  <r_i_glide_gscore_strain>  (1) 
0

>  <r_i_glide_hbond>  (1) 
0

>  <r_i_glide_ligand_efficiency>  (1) 
-0.1313318626148389

>  <r_i_glide_ligand_efficiency_ln>  (1) 
-0.73041641033044657

>  <r_i_glide_ligand_efficiency_sa>  (1) 
-0.37349034749274257

>  <r_i_glide_lipo>  (1) 
-1.8268476393989539

>  <r_i_glide_metal>  (1) 
-0

>  <r_i_glide_rewards>  (1) 
-1.6014969619703829

>  <r_lp_Energy>  (1) 
16.161977

>  <r_lp_tautomer_probability>  (1) 
0.99995000000000001

>  <s_epik_cmdline>  (1) 
J2VwaWtfcHl0aG9uJywgJy1waHQnLCAnMS4wJywgJy1waCcsICc3LjQnLCAnLXRuJywgJzgnLCAnLW1hJywgJzUwMCcsICctaW1hZScsICc8aW5maWxlLm1hZT4nLCAnLW9tYWUnLCAnPG91dGZpbGUubWFlPic=

>  <s_epik_input>  (1) 
W0NIMl0xW0NIMl1bQ0gyXU9bQ0BASF0xW0NASF0yW0NASF0oW09IXSlbQ0gyXU4oW0NASF0oW0NASF0yMylbQ0gyXTMpW0NASF0oW0NIM10pL1tDSF09W0NIXVxbQ0BASF00U1tDSDJdW0NIMl1DND1P

>  <s_glide_docking_method>  (1) 
confgen

>  <s_i_glide_gridfile>  (1) 
gpcr_drd2_6luq_protein_autoprepared_prepared

>  <s_lp_Force_Field>  (1) 
S-OPLS

>  <s_lp_Variant>  (1) 
DiffSBDD_55_num_sample_100-12

>  <s_m_source_file>  (1) 
generated__ligand_DiffSBDD_2026-05-06_prepared.sdf

>  <GenAI_Model>  (1) 
DiffSBDD

>  <Protein>  (1) 
generic_title2

$$$$
DiffSBDD_68_num_sample_100
     RDKit          3D

  0  0  0  0  0  0  0  0  0  0999 V3000
M  V30 BEGIN CTAB
M  V30 COUNTS 88 93 0 0 1
M  V30 BEGIN ATOM
M  V30 1 C 7.834489 3.319392 -14.451265 0
M  V30 2 C 5.801927 5.839648 -16.054580 0
M  V30 3 C 10.008998 8.969630 -23.327880 0
M  V30 4 C 6.719088 5.744211 -20.545461 0
M  V30 5 C 9.167750 5.265133 -8.229948 0
M  V30 6 C 9.193884 6.420713 -12.108222 0 CFG=1
M  V30 7 O 9.434793 3.448798 -12.651883 0
M  V30 8 C 6.711628 7.369316 -13.578821 0
M  V30 9 O 9.834845 4.169285 -8.691670 0
M  V30 10 C 7.235682 3.267184 -20.281028 0
M  V30 11 C 8.542764 7.810687 -11.970084 0
M  V30 12 C 11.225498 8.323289 -22.823707 0
M  V30 13 C 8.556677 7.776929 -21.682162 0 CFG=2
M  V30 14 C 9.035605 5.628866 -10.780500 0 CFG=2
M  V30 15 C 8.219191 4.994172 -16.229751 0 CFG=1
M  V30 16 C 9.733747 7.076704 -21.087811 0 CFG=2
M  V30 17 O 7.834830 4.969330 -7.955448 0
M  V30 18 C 11.112150 7.392308 -21.617956 0
M  V30 19 C 13.087003 8.169354 -9.172922 0
M  V30 20 C 7.257356 6.028056 -13.989128 0 CFG=1
M  V30 21 C 6.635173 4.692709 -18.190783 0 CFG=2
M  V30 22 C 5.700611 5.769284 -17.586766 0
M  V30 23 O 7.741100 5.048277 -10.736061 0
M  V30 24 O 10.608649 6.922871 -9.260507 0
M  V30 25 C 8.726418 6.286320 -21.897291 0 CFG=1
M  V30 26 C 8.711286 4.070723 -13.421834 0
M  V30 27 C 10.892717 7.632085 -8.052369 0 CFG=1
M  V30 28 C 8.080020 5.007843 -17.765125 0
M  V30 29 C 7.035567 7.751154 -12.163472 0
M  V30 30 C 7.217054 5.974092 -15.541939 0 CFG=2
M  V30 31 C 12.231857 8.326483 -8.152517 0
M  V30 32 O 9.911400 8.601503 -7.731350 0
M  V30 33 C 8.803342 8.705812 -22.788335 0
M  V30 34 C 8.647894 5.631416 -13.403814 0 CFG=2
M  V30 35 C 10.709981 6.679698 -12.291657 0
M  V30 36 O 9.034804 8.070660 -6.695956 0
M  V30 37 N 7.933881 5.328623 -21.191897 0
M  V30 38 S 12.670800 8.644185 -23.576500 0
M  V30 39 C 8.230165 4.049657 -21.094344 0
M  V30 40 O 8.111339 3.633964 -15.816296 0
M  V30 41 O 9.218270 3.518825 -21.600067 0
M  V30 42 C 6.395204 4.466568 -19.704274 0 CFG=1
M  V30 43 C 9.344384 6.272860 -9.371374 0 CFG=2
M  V30 44 H 8.020914 2.250882 -14.335840 0
M  V30 45 H 6.771561 3.440283 -14.246639 0
M  V30 46 H 5.181409 6.672048 -15.721230 0
M  V30 47 H 5.434970 4.969265 -15.545926 0
M  V30 48 H 10.081400 9.676255 -24.135713 0
M  V30 49 H 5.944525 5.933206 -21.289135 0
M  V30 50 H 6.844644 6.628418 -19.927044 0
M  V30 51 H 9.584667 5.546801 -7.270656 0
M  V30 52 H 5.627301 7.385484 -13.690842 0
M  V30 53 H 7.103442 8.163721 -14.216155 0
M  V30 54 H 9.463843 3.932092 -9.529623 0
M  V30 55 H 7.719402 2.650445 -19.521396 0
M  V30 56 H 6.643614 2.630850 -20.938772 0
M  V30 57 H 8.769726 8.265141 -11.008702 0
M  V30 58 H 8.960960 8.509101 -12.691685 0
M  V30 59 H 7.841734 8.174797 -20.968059 0
M  V30 60 H 9.769900 4.841196 -10.887228 0
M  V30 61 H 9.243433 5.313173 -16.038952 0
M  V30 62 H 9.705334 6.920169 -20.011155 0
M  V30 63 H 7.788076 4.221534 -7.382827 0
M  V30 64 H 11.607064 6.449125 -21.853915 0
M  V30 65 H 14.032503 8.690951 -9.192306 0
M  V30 66 H 12.853052 7.520941 -9.995882 0
M  V30 67 H 6.517794 5.348432 -13.567018 0
M  V30 68 H 6.404018 3.726850 -17.754330 0
M  V30 69 H 5.924034 6.758031 -17.986299 0
M  V30 70 H 4.664632 5.571886 -17.857720 0
M  V30 71 H 7.178482 5.637728 -10.247230 0
M  V30 72 H 9.028511 5.988340 -22.899861 0
M  V30 73 H 11.061755 6.958438 -7.214049 0
M  V30 74 H 8.378755 5.984728 -18.146867 0
M  V30 75 H 8.785071 4.288972 -18.185828 0
M  V30 76 H 6.547465 7.049768 -11.491700 0
M  V30 77 H 6.616527 8.718586 -11.891619 0
M  V30 78 H 7.434828 6.969568 -15.891929 0
M  V30 79 H 12.492586 8.983539 -7.337801 0
M  V30 80 H 7.935132 9.208454 -23.190506 0
M  V30 81 H 9.380399 5.903494 -14.147826 0
M  V30 82 H 10.929698 7.368969 -13.091725 0
M  V30 83 H 11.172265 7.161694 -11.438728 0
M  V30 84 H 11.264085 5.769270 -12.483590 0
M  V30 85 H 8.293098 7.769456 -7.213633 0
M  V30 86 H 11.682350 7.844773 -20.806046 0
M  V30 87 H 5.338860 4.224782 -19.827338 0
M  V30 88 H 8.635037 7.042056 -9.182345 0
M  V30 END ATOM
M  V30 BEGIN BOND
M  V30 1 1 9 5
M  V30 2 1 11 6
M  V30 3 1 12 3
M  V30 4 1 14 6
M  V30 5 1 16 13
M  V30 6 1 17 5
M  V30 7 1 18 12
M  V30 8 1 18 16
M  V30 9 1 20 8
M  V30 10 1 22 2
M  V30 11 1 22 21
M  V30 12 1 23 14
M  V30 13 1 25 13
M  V30 14 1 25 16
M  V30 15 1 26 1
M  V30 16 2 26 7
M  V30 17 1 27 24
M  V30 18 1 28 15
M  V30 19 1 28 21
M  V30 20 1 29 8
M  V30 21 1 29 11
M  V30 22 1 30 2
M  V30 23 1 30 15
M  V30 24 1 30 20
M  V30 25 2 31 19
M  V30 26 1 31 27
M  V30 27 1 32 27
M  V30 28 2 33 3
M  V30 29 1 33 13
M  V30 30 1 34 6
M  V30 31 1 34 20
M  V30 32 1 34 26
M  V30 33 1 6 35 CFG=3
M  V30 34 1 36 32
M  V30 35 1 37 4
M  V30 36 1 37 25
M  V30 37 2 38 12
M  V30 38 1 39 10
M  V30 39 1 39 37
M  V30 40 1 40 1
M  V30 41 1 40 15
M  V30 42 2 41 39
M  V30 43 1 42 4
M  V30 44 1 42 10
M  V30 45 1 42 21
M  V30 46 1 43 5
M  V30 47 1 43 14
M  V30 48 1 43 24
M  V30 49 1 44 1
M  V30 50 1 45 1
M  V30 51 1 46 2
M  V30 52 1 47 2
M  V30 53 1 48 3
M  V30 54 1 49 4
M  V30 55 1 50 4
M  V30 56 1 51 5
M  V30 57 1 52 8
M  V30 58 1 53 8
M  V30 59 1 54 9
M  V30 60 1 55 10
M  V30 61 1 56 10
M  V30 62 1 57 11
M  V30 63 1 58 11
M  V30 64 1 13 59 CFG=1
M  V30 65 1 14 60 CFG=3
M  V30 66 1 15 61 CFG=3
M  V30 67 1 16 62 CFG=1
M  V30 68 1 63 17
M  V30 69 1 64 18
M  V30 70 1 65 19
M  V30 71 1 66 19
M  V30 72 1 20 67 CFG=1
M  V30 73 1 21 68 CFG=1
M  V30 74 1 69 22
M  V30 75 1 70 22
M  V30 76 1 71 23
M  V30 77 1 25 72 CFG=3
M  V30 78 1 27 73 CFG=1
M  V30 79 1 74 28
M  V30 80 1 75 28
M  V30 81 1 76 29
M  V30 82 1 77 29
M  V30 83 1 30 78 CFG=3
M  V30 84 1 79 31
M  V30 85 1 80 33
M  V30 86 1 34 81 CFG=3
M  V30 87 1 82 35
M  V30 88 1 83 35
M  V30 89 1 84 35
M  V30 90 1 85 36
M  V30 91 1 86 18
M  V30 92 1 42 87 CFG=1
M  V30 93 1 43 88 CFG=1
M  V30 END BOND
M  V30 END CTAB
M  END
>  <i_epik_Tot_Q>  (1) 
0

>  <i_epik_Tot_abs_Q>  (1) 
0

>  <i_i_glide_confnum>  (1) 
758

>  <i_i_glide_lignum>  (1) 
137

>  <i_i_glide_posenum>  (1) 
253

>  <i_i_glide_rotatable_bonds>  (1) 
13

>  <i_lp_mmshare_version>  (1) 
72125

>  <i_m_source_file_index>  (1) 
69

>  <i_f3d_flags>  (1) 
0

>  <num_sample>  (1) 
100

>  <b_lp_Chiralities_Consistent>  (1) 
1

>  <r_epik_Charging_Adjusted_Penalty>  (1) 
0

>  <r_epik_Ionization_Penalty>  (1) 
0.00032218278010154739

>  <r_epik_Ionization_Penalty_Charging>  (1) 
0

>  <r_epik_Ionization_Penalty_Neutral>  (1) 
0.00032218278010154739

>  <r_epik_State_Penalty>  (1) 
-0

>  <r_glide_ring_energy>  (1) 
0

>  <r_i_docking_score>  (1) 
-3.0078868262092531

>  <r_i_glide_ecoul>  (1) 
-1.8844777968285049

>  <r_i_glide_eff_state_penalty>  (1) 
-0

>  <r_i_glide_einternal>  (1) 
10.925431894271224

>  <r_i_glide_emodel>  (1) 
-16.163644196871353

>  <r_i_glide_emodel_strain>  (1) 
5.9692553510524817

>  <r_i_glide_energy>  (1) 
-24.132794433362381

>  <r_i_glide_erotb>  (1) 
0.36271052330308029

>  <r_i_glide_esite>  (1) 
-0.1120695211834343

>  <r_i_glide_evdw>  (1) 
-22.248316636533875

>  <r_i_glide_gscore>  (1) 
-3.0078868262092531

>  <r_i_glide_gscore_strain>  (1) 
0.49231383776312043

>  <r_i_glide_hbond>  (1) 
-0.15457558392118365

>  <r_i_glide_ligand_efficiency>  (1) 
-0.069950856423471

>  <r_i_glide_ligand_efficiency_ln>  (1) 
-0.63174971711330719

>  <r_i_glide_ligand_efficiency_sa>  (1) 
-0.24506569471637857

>  <r_i_glide_lipo>  (1) 
-1.7727184223481012

>  <r_i_glide_metal>  (1) 
-0

>  <r_i_glide_rewards>  (1) 
-0.42846015847176455

>  <r_lp_Energy>  (1) 
44.537447999999998

>  <r_lp_tautomer_probability>  (1) 
1

>  <s_epik_Chemistry_Notes>  (1) 
This compound contains an acetal/aminal-like group ( X-CH(R)-Y where X, Y are N, S, or O) that may be acid/base labile, releasing an aldehyde.

>  <s_epik_cmdline>  (1) 
J2VwaWtfcHl0aG9uJywgJy1waHQnLCAnMS4wJywgJy1waCcsICc3LjQnLCAnLXRuJywgJzgnLCAnLW1hJywgJzUwMCcsICctaW1hZScsICc8aW5maWxlLm1hZT4nLCAnLW9tYWUnLCAnPG91dGZpbGUubWFlPic=

>  <s_epik_input>  (1) 
W0NIMl09W0NIXVtDQEBIXShPW09IXSlPW0NASF0oW0NIXShbT0hdKVtPSF0pW0NAQEhdKFtPSF0pW0NAXShbQ0gzXSkoW0NIMl1bQ0gyXVtDSDJdMSlbQ0BASF0oQyg9TylbQ0gyXU8yKVtDQEBIXTFbQ0BASF0oW0NAQEhdMjMpW0NIMl1bQ0gyXVtDQEhdKFtDSDJdMylbQ0BIXShbQ0gyXUM0PU8pW0NIMl1ONFtDQEBIXTVbQ0BIXShbQ0BIXTU2KVtDSF09QyhbU0hdKVtDSF09W0NIXTY=

>  <s_glide_docking_method>  (1) 
confgen

>  <s_i_glide_gridfile>  (1) 
gpcr_drd2_6luq_protein_autoprepared_prepared

>  <s_lp_Force_Field>  (1) 
S-OPLS

>  <s_lp_Variant>  (1) 
DiffSBDD_68_num_sample_100-1

>  <s_m_source_file>  (1) 
generated__ligand_DiffSBDD_2026-05-06_prepared.sdf

>  <GenAI_Model>  (1) 
DiffSBDD

>  <Protein>  (1) 
generic_title2

$$$$
DiffSBDD_49_num_sample_100
     RDKit          3D

  0  0  0  0  0  0  0  0  0  0999 V3000
M  V30 BEGIN CTAB
M  V30 COUNTS 53 56 0 0 1
M  V30 BEGIN ATOM
M  V30 1 N 7.967390 3.482235 -19.453339 0
M  V30 2 C 5.367711 6.715188 -18.335860 0
M  V30 3 C 5.314608 7.334670 -20.694588 0
M  V30 4 C 7.085450 -0.075446 -17.618200 0
M  V30 5 C 12.529051 4.317618 -16.963541 0
M  V30 6 S 5.650498 2.562388 -20.462017 0
M  V30 7 C 5.980872 5.492997 -18.669247 0
M  V30 8 C 11.316049 2.593243 -18.430628 0 CFG=1
M  V30 9 C 6.919321 3.866231 -20.386246 0 CFG=1
M  V30 10 C 6.064739 0.659555 -18.503560 0
M  V30 11 C 10.000294 2.440396 -17.615976 0
M  V30 12 C 7.882319 2.259863 -19.145788 0
M  V30 13 C 12.491329 5.367285 -18.092671 0 CFG=2
M  V30 14 O 12.634871 7.768832 -18.538048 0
M  V30 15 C 8.886579 1.544992 -18.231576 0 CFG=2
M  V30 16 C 12.500746 6.797574 -17.514260 0
M  V30 17 C 6.262804 5.188661 -20.019326 0
M  V30 18 C 11.277482 3.656446 -19.551201 0
M  V30 19 C 5.034876 7.634922 -19.348142 0
M  V30 20 C 6.756938 1.404537 -19.660015 0 CFG=2
M  V30 21 C 12.531626 2.881888 -17.517734 0
M  V30 22 N 8.126459 0.868584 -17.144583 0 CHG=1
M  V30 23 C 11.274790 5.099861 -19.007324 0
M  V30 24 C 5.927527 6.112866 -21.031189 0
M  V30 25 H 9.362484 0.755592 -18.815063 0
M  V30 26 H 5.152041 6.947481 -17.303146 0
M  V30 27 H 5.057945 8.041549 -21.469982 0
M  V30 28 H 6.587194 -0.524725 -16.757894 0
M  V30 29 H 7.556430 -0.889021 -18.172252 0
M  V30 30 H 13.416952 4.466287 -16.347739 0
M  V30 31 H 11.675582 4.453944 -16.297926 0
M  V30 32 H 6.234765 4.788559 -17.891681 0
M  V30 33 H 11.512560 1.629264 -18.901413 0
M  V30 34 H 7.360099 3.958348 -21.380451 0
M  V30 35 H 5.504136 1.368344 -17.891185 0
M  V30 36 H 5.331628 -0.045303 -18.898281 0
M  V30 37 H 10.292178 1.950861 -16.691667 0
M  V30 38 H 9.609731 3.407827 -17.298502 0
M  V30 39 H 13.396951 5.246103 -18.689321 0
M  V30 40 H 12.515309 8.642164 -18.175172 0
M  V30 41 H 13.333911 6.920715 -16.821417 0
M  V30 42 H 11.590052 6.968699 -16.942185 0
M  V30 43 H 12.160504 3.531361 -20.179342 0
M  V30 44 H 10.434545 3.495445 -20.219319 0
M  V30 45 H 4.563768 8.570113 -19.091659 0
M  V30 46 H 13.448173 2.731467 -18.089776 0
M  V30 47 H 12.583150 2.168792 -16.693410 0
M  V30 48 H 10.348603 5.293331 -18.465487 0
M  V30 49 H 11.282564 5.797305 -19.845672 0
M  V30 50 H 6.139740 5.883735 -22.065362 0
M  V30 51 H 8.774765 0.355091 -16.564769 0
M  V30 52 H 7.150645 0.706359 -20.399638 0
M  V30 53 H 7.682326 1.577196 -16.577136 0
M  V30 END ATOM
M  V30 BEGIN BOND
M  V30 1 1 7 2
M  V30 2 1 9 1
M  V30 3 1 9 6
M  V30 4 1 10 4
M  V30 5 1 11 8
M  V30 6 2 12 1
M  V30 7 1 13 5
M  V30 8 1 15 11
M  V30 9 1 15 12
M  V30 10 1 16 13
M  V30 11 1 16 14
M  V30 12 2 17 7
M  V30 13 1 17 9
M  V30 14 1 18 8
M  V30 15 2 19 2
M  V30 16 1 19 3
M  V30 17 1 20 6
M  V30 18 1 20 10
M  V30 19 1 20 12
M  V30 20 1 21 5
M  V30 21 1 21 8
M  V30 22 1 22 4
M  V30 23 1 22 15
M  V30 24 1 23 13
M  V30 25 1 23 18
M  V30 26 2 24 3
M  V30 27 1 24 17
M  V30 28 1 15 25 CFG=3
M  V30 29 1 26 2
M  V30 30 1 27 3
M  V30 31 1 28 4
M  V30 32 1 29 4
M  V30 33 1 30 5
M  V30 34 1 31 5
M  V30 35 1 32 7
M  V30 36 1 8 33 CFG=3
M  V30 37 1 9 34 CFG=3
M  V30 38 1 35 10
M  V30 39 1 36 10
M  V30 40 1 37 11
M  V30 41 1 38 11
M  V30 42 1 13 39 CFG=3
M  V30 43 1 40 14
M  V30 44 1 41 16
M  V30 45 1 42 16
M  V30 46 1 43 18
M  V30 47 1 44 18
M  V30 48 1 45 19
M  V30 49 1 46 21
M  V30 50 1 47 21
M  V30 51 1 48 23
M  V30 52 1 49 23
M  V30 53 1 50 24
M  V30 54 1 51 22
M  V30 55 1 20 52 CFG=3
M  V30 56 1 53 22
M  V30 END BOND
M  V30 END CTAB
M  END
>  <i_epik_Tot_Q>  (1) 
1

>  <i_epik_Tot_abs_Q>  (1) 
1

>  <i_i_glide_confnum>  (1) 
30

>  <i_i_glide_lignum>  (1) 
93

>  <i_i_glide_posenum>  (1) 
379

>  <i_i_glide_rotatable_bonds>  (1) 
5

>  <i_lp_mmshare_version>  (1) 
72125

>  <i_m_source_file_index>  (1) 
50

>  <i_f3d_flags>  (1) 
0

>  <num_sample>  (1) 
100

>  <b_lp_Chiralities_Consistent>  (1) 
1

>  <r_epik_Charging_Adjusted_Penalty>  (1) 
1.8117775797116225

>  <r_epik_Ionization_Penalty>  (1) 
0.90588925903239437

>  <r_epik_Ionization_Penalty_Charging>  (1) 
0.90588878985581123

>  <r_epik_Ionization_Penalty_Neutral>  (1) 
4.6917658313918283e-07

>  <r_epik_State_Penalty>  (1) 
0.90588878985581134

>  <r_glide_ring_energy>  (1) 
0.011149821634754045

>  <r_i_docking_score>  (1) 
-3.0046798473243825

>  <r_i_glide_ecoul>  (1) 
-5.1467517540209311

>  <r_i_glide_eff_state_penalty>  (1) 
0.90588878985581134

>  <r_i_glide_einternal>  (1) 
1.4217475157365467

>  <r_i_glide_emodel>  (1) 
-28.867887271258738

>  <r_i_glide_emodel_strain>  (1) 
0

>  <r_i_glide_energy>  (1) 
-23.840641989735822

>  <r_i_glide_erotb>  (1) 
0.63659216225735071

>  <r_i_glide_esite>  (1) 
0

>  <r_i_glide_evdw>  (1) 
-18.693890235714889

>  <r_i_glide_gscore>  (1) 
-3.910568637180194

>  <r_i_glide_gscore_strain>  (1) 
0

>  <r_i_glide_hbond>  (1) 
-0.32000000000000001

>  <r_i_glide_ligand_efficiency>  (1) 
-0.12519499363851594

>  <r_i_glide_ligand_efficiency_ln>  (1) 
-0.71915776323881275

>  <r_i_glide_ligand_efficiency_sa>  (1) 
-0.36112485155957669

>  <r_i_glide_lipo>  (1) 
-1.4185698708473333

>  <r_i_glide_metal>  (1) 
-0

>  <r_i_glide_rewards>  (1) 
-1.1018836537013275

>  <r_lp_Energy>  (1) 
30.244025999999998

>  <r_lp_tautomer_probability>  (1) 
0.99998600000000004

>  <s_epik_Chemistry_Notes>  (1) 
This compound has an imine and may undergo hydrolysis. This compound contains an acetal/aminal-like group ( X-CH(R)-Y where X, Y are N, S, or O) that may be acid/base labile, releasing an aldehyde.

>  <s_epik_cmdline>  (1) 
J2VwaWtfcHl0aG9uJywgJy1waHQnLCAnMS4wJywgJy1waCcsICc3LjQnLCAnLXRuJywgJzgnLCAnLW1hJywgJzUwMCcsICctaW1hZScsICc8aW5maWxlLm1hZT4nLCAnLW9tYWUnLCAnPG91dGZpbGUubWFlPic=

>  <s_epik_input>  (1) 
W2NIXTFbY0hdW2NIXVtjSF1bY0hdYzFbQ0BASF0oW05IXTIpU1tDQEBIXShbQ0BIXTIzKVtDSDJdW0NIMl1OPUMzW0NIMl1bQ0BIXTRbQ0gyXVtDSDJdW0NASF0oW0NIMl1bQ0gyXTQpW0NIMl1bT0hd

>  <s_glide_docking_method>  (1) 
confgen

>  <s_i_glide_gridfile>  (1) 
gpcr_drd2_6luq_protein_autoprepared_prepared

>  <s_lp_Force_Field>  (1) 
S-OPLS

>  <s_lp_Variant>  (1) 
DiffSBDD_49_num_sample_100-3

>  <s_m_source_file>  (1) 
generated__ligand_DiffSBDD_2026-05-06_prepared.sdf

>  <GenAI_Model>  (1) 
DiffSBDD

>  <Protein>  (1) 
generic_title2

$$$$
DiffSBDD_69_num_sample_100
     RDKit          3D

  0  0  0  0  0  0  0  0  0  0999 V3000
M  V30 BEGIN CTAB
M  V30 COUNTS 57 59 0 0 1
M  V30 BEGIN ATOM
M  V30 1 C 7.837375 7.720290 -12.291655 0
M  V30 2 C 11.870681 0.468827 -17.946337 0
M  V30 3 C 9.988065 7.443612 -10.020663 0
M  V30 4 C 5.869501 0.080144 -17.136891 0 CFG=2
M  V30 5 N 7.207670 3.331392 -13.046088 0
M  V30 6 O 7.733945 5.347571 -12.290945 0
M  V30 7 O 5.434828 1.209546 -19.196359 0
M  V30 8 N 6.770112 1.682551 -14.806918 0
M  V30 9 C 6.206436 1.095539 -13.594258 0 CFG=1
M  V30 10 C 10.956761 2.678231 -17.891598 0
M  V30 11 C 9.088912 6.290967 -10.506302 0
M  V30 12 C 12.042932 1.791081 -17.945624 0
M  V30 13 C 5.417416 0.143853 -18.588973 0
M  V30 14 C 13.967983 0.868051 -18.017385 0
M  V30 15 O 13.008170 -0.230702 -17.997916 0
M  V30 16 C 8.606631 6.428961 -11.969981 0 CFG=2
M  V30 17 O 13.321755 2.176924 -17.997842 0
M  V30 18 C 9.646404 2.148678 -17.829137 0
M  V30 19 F 5.003365 -0.983347 -19.193491 0
M  V30 20 C 9.459809 0.732977 -17.825279 0
M  V30 21 C 10.592307 -0.112157 -17.891663 0
M  V30 22 C 10.512826 7.250911 -8.585790 0 CFG=1
M  V30 23 O 9.434839 3.902057 -12.691645 0
M  V30 24 O 11.532947 8.200868 -8.356064 0
M  V30 25 O 6.634555 -0.230696 -13.379033 0
M  V30 26 C 7.231935 0.779146 -16.903624 0 CFG=1
M  V30 27 C 8.238421 4.168538 -12.676785 0
M  V30 28 O 7.611784 0.734257 -15.527963 0
M  V30 29 O 5.942503 -1.258089 -16.691684 0
M  V30 30 C 9.437062 7.446273 -7.506592 0
M  V30 31 C 7.398488 2.009879 -13.537008 0 CFG=2
M  V30 32 O 8.198464 0.179025 -17.764356 0
M  V30 33 H 8.438163 8.609439 -12.105408 0
M  V30 34 H 6.922589 7.801066 -11.705738 0
M  V30 35 H 7.551535 7.742480 -13.343492 0
M  V30 36 H 10.833231 7.529671 -10.704972 0
M  V30 37 H 9.450764 8.390794 -10.073552 0
M  V30 38 H 5.096543 0.569285 -16.544275 0
M  V30 39 H 6.272640 3.701840 -12.975492 0
M  V30 40 H 5.249074 1.398743 -13.178598 0
M  V30 41 H 11.119039 3.745970 -17.893183 0
M  V30 42 H 9.650069 5.361339 -10.411039 0
M  V30 43 H 8.234662 6.169298 -9.845020 0
M  V30 44 H 14.614021 0.781490 -17.142556 0
M  V30 45 H 14.581483 0.787667 -18.915576 0
M  V30 46 H 9.478534 6.402847 -12.626315 0
M  V30 47 H 8.801424 2.815956 -17.787113 0
M  V30 48 H 10.476291 -1.185130 -17.890956 0
M  V30 49 H 10.953337 6.258205 -8.485734 0
M  V30 50 H 11.862141 8.077187 -7.479663 0
M  V30 51 H 5.903717 -0.832092 -13.491674 0
M  V30 52 H 7.093685 1.818218 -17.201366 0
M  V30 53 H 6.792462 -1.391933 -16.291665 0
M  V30 54 H 8.634833 6.715290 -7.606475 0
M  V30 55 H 8.986254 8.437183 -7.570975 0
M  V30 56 H 9.852820 7.331612 -6.505080 0
M  V30 57 H 8.368045 1.552466 -13.334369 0
M  V30 END ATOM
M  V30 BEGIN BOND
M  V30 1 1 9 8
M  V30 2 1 11 3
M  V30 3 2 12 2
M  V30 4 1 12 10
M  V30 5 1 13 4
M  V30 6 2 13 7
M  V30 7 1 15 2
M  V30 8 1 15 14
M  V30 9 1 16 1
M  V30 10 1 16 6
M  V30 11 1 16 11
M  V30 12 1 17 12
M  V30 13 1 17 14
M  V30 14 2 18 10
M  V30 15 1 19 13
M  V30 16 1 20 18
M  V30 17 1 21 2
M  V30 18 2 21 20
M  V30 19 1 22 3
M  V30 20 1 24 22
M  V30 21 1 25 9
M  V30 22 1 26 4
M  V30 23 1 27 5
M  V30 24 1 27 6
M  V30 25 2 27 23
M  V30 26 1 28 8
M  V30 27 1 28 26
M  V30 28 1 29 4
M  V30 29 1 30 22
M  V30 30 1 31 5
M  V30 31 1 31 8
M  V30 32 1 31 9
M  V30 33 1 32 20
M  V30 34 1 32 26
M  V30 35 1 33 1
M  V30 36 1 34 1
M  V30 37 1 35 1
M  V30 38 1 36 3
M  V30 39 1 37 3
M  V30 40 1 4 38 CFG=1
M  V30 41 1 39 5
M  V30 42 1 9 40 CFG=1
M  V30 43 1 41 10
M  V30 44 1 42 11
M  V30 45 1 43 11
M  V30 46 1 44 14
M  V30 47 1 45 14
M  V30 48 1 16 46 CFG=3
M  V30 49 1 47 18
M  V30 50 1 48 21
M  V30 51 1 22 49 CFG=3
M  V30 52 1 50 24
M  V30 53 1 51 25
M  V30 54 1 26 52 CFG=3
M  V30 55 1 53 29
M  V30 56 1 54 30
M  V30 57 1 55 30
M  V30 58 1 56 30
M  V30 59 1 31 57 CFG=3
M  V30 END BOND
M  V30 END CTAB
M  END
>  <i_epik_Tot_Q>  (1) 
0

>  <i_epik_Tot_abs_Q>  (1) 
0

>  <i_i_glide_confnum>  (1) 
2324

>  <i_i_glide_lignum>  (1) 
140

>  <i_i_glide_posenum>  (1) 
194

>  <i_i_glide_rotatable_bonds>  (1) 
16

>  <i_lp_mmshare_version>  (1) 
72125

>  <i_m_source_file_index>  (1) 
70

>  <i_f3d_flags>  (1) 
0

>  <num_sample>  (1) 
100

>  <b_lp_Chiralities_Consistent>  (1) 
1

>  <r_epik_Charging_Adjusted_Penalty>  (1) 
0.44341445758704578

>  <r_epik_Ionization_Penalty>  (1) 
0.44344869696236644

>  <r_epik_Ionization_Penalty_Charging>  (1) 
0

>  <r_epik_Ionization_Penalty_Neutral>  (1) 
0.44344869696236644

>  <r_epik_State_Penalty>  (1) 
0.44341445758704578

>  <r_glide_ring_energy>  (1) 
0

>  <r_i_docking_score>  (1) 
-3.0006491277128235

>  <r_i_glide_ecoul>  (1) 
-1.2101400146614618

>  <r_i_glide_eff_state_penalty>  (1) 
0.44341445758704578

>  <r_i_glide_einternal>  (1) 
12.978305325432252

>  <r_i_glide_emodel>  (1) 
-42.554292907129096

>  <r_i_glide_emodel_strain>  (1) 
0.5074584634575956

>  <r_i_glide_energy>  (1) 
-40.090782569483395

>  <r_i_glide_erotb>  (1) 
1.0444707678755103

>  <r_i_glide_esite>  (1) 
0

>  <r_i_glide_evdw>  (1) 
-38.880642554821932

>  <r_i_glide_gscore>  (1) 
-3.4440635852998693

>  <r_i_glide_gscore_strain>  (1) 
0

>  <r_i_glide_hbond>  (1) 
-0.24987970508899657

>  <r_i_glide_ligand_efficiency>  (1) 
-0.093770285241025736

>  <r_i_glide_ligand_efficiency_ln>  (1) 
-0.67192713430089113

>  <r_i_glide_ligand_efficiency_sa>  (1) 
-0.29770209886992482

>  <r_i_glide_lipo>  (1) 
-0.49601517268161649

>  <r_i_glide_metal>  (1) 
-0

>  <r_i_glide_rewards>  (1) 
-1.6170863454644504

>  <r_lp_Energy>  (1) 
34.780937000000002

>  <r_lp_tautomer_probability>  (1) 
1

>  <s_epik_Chemistry_Notes>  (1) 
This compound has an ester and may undergo hydrolysis at high or low pH. This compound contains an acetal/aminal-like group ( X-CH(R)-Y where X, Y are N, S, or O) that may be acid/base labile, releasing an aldehyde. This compound has a N-S or N-O group and may undergo hydrolysis at high or low pH.

>  <s_epik_cmdline>  (1) 
J2VwaWtfcHl0aG9uJywgJy1waHQnLCAnMS4wJywgJy1waCcsICc3LjQnLCAnLXRuJywgJzgnLCAnLW1hJywgJzUwMCcsICctaW1hZScsICc8aW5maWxlLm1hZT4nLCAnLW9tYWUnLCAnPG91dGZpbGUubWFlPic=

>  <s_epik_input>  (1) 
W09IXVtDQEBIXShbQ0gzXSlbQ0gyXVtDSDJdW0NASF0oW0NIM10pT0MoPU8pW05IXVtDQEhdMVtDSF0oW09IXSlbTkBAXTFPW0NASF0oW0NAQEhdKEMoPU8pRilbT0hdKU9jKFtjSF0yKVtjSF1bY0hdYyhjMjMpT1tDSDJdTzM=

>  <s_glide_docking_method>  (1) 
confgen

>  <s_i_glide_gridfile>  (1) 
gpcr_drd2_6luq_protein_autoprepared_prepared

>  <s_lp_Force_Field>  (1) 
S-OPLS

>  <s_lp_Variant>  (1) 
DiffSBDD_69_num_sample_100-2

>  <s_m_source_file>  (1) 
generated__ligand_DiffSBDD_2026-05-06_prepared.sdf

>  <GenAI_Model>  (1) 
DiffSBDD

>  <Protein>  (1) 
generic_title2

$$$$
DiffSBDD_13_num_sample_100
     RDKit          3D

  0  0  0  0  0  0  0  0  0  0999 V3000
M  V30 BEGIN CTAB
M  V30 COUNTS 83 88 0 0 1
M  V30 BEGIN ATOM
M  V30 1 C 8.070644 5.557479 -12.057700 0
M  V30 2 C 6.097066 6.492662 -13.509531 0
M  V30 3 C 6.098490 -1.835331 -20.823872 0
M  V30 4 F 7.598518 4.969221 -9.817136 0
M  V30 5 O 10.545120 7.516120 -8.795443 0 CHG=-1
M  V30 6 C 9.891388 1.041150 -21.833402 0 CFG=2
M  V30 7 C 8.918965 5.301696 -13.225220 0
M  V30 8 F 9.434831 4.182517 -10.735371 0
M  V30 9 C 8.525908 5.369421 -14.462942 0
M  V30 10 C 11.204307 2.831747 -20.505143 0
M  V30 11 C 10.045876 4.264947 -17.336588 0
M  V30 12 C 8.261547 2.767192 -18.617168 0 CFG=2
M  V30 13 C 9.643476 3.375744 -18.500231 0 CFG=2
M  V30 14 O 9.426380 -0.265372 -19.184863 0
M  V30 15 C 6.683081 -1.567051 -22.219530 0 CFG=1
M  V30 16 C 8.618110 5.265310 -10.664343 0
M  V30 17 C 9.910758 6.493767 -9.055454 0
M  V30 18 C 6.799304 6.062690 -12.191763 0
M  V30 19 O 9.993515 4.889651 -20.329335 0
M  V30 20 C 10.220434 0.887234 -19.095897 0 CFG=1
M  V30 21 O 9.308445 6.371394 -10.261495 0
M  V30 22 C 10.375612 -1.562577 -22.142633 0
M  V30 23 C 9.312277 5.611851 -17.290360 0
M  V30 24 C 9.164178 -2.390443 -21.650323 0
M  V30 25 C 7.183933 3.191286 -17.636240 0
M  V30 26 C 11.460976 0.426321 -18.273346 0
M  V30 27 O 9.834492 5.585162 -8.227928 0
M  V30 28 C 7.819489 5.581802 -16.849589 0 CFG=1
M  V30 29 C 9.976652 -0.215494 -22.692223 0 CFG=2
M  V30 30 C 6.730708 -0.054058 -22.584143 0
M  V30 31 O 12.308195 1.491742 -17.891665 0
M  V30 32 C 10.685578 1.374482 -20.524171 0 CFG=1
M  V30 33 C 7.925413 -2.442092 -22.582109 0
M  V30 34 C 6.155550 5.688082 -14.838073 0
M  V30 35 C 6.912534 4.704651 -17.729214 0
M  V30 36 O 6.242686 -2.928571 -20.278987 0
M  V30 37 C 7.569287 5.516164 -15.330561 0
M  V30 38 C 9.442000 1.896985 -18.242293 0 CFG=2
M  V30 39 C 10.252356 3.802297 -19.817883 0
M  V30 40 C 7.326432 0.951581 -21.560173 0
M  V30 41 C 8.558622 1.759586 -22.035715 0
M  V30 42 C 10.873423 0.931957 -23.004853 0
M  V30 43 H 5.042953 6.596838 -13.252494 0
M  V30 44 H 6.433974 7.509314 -13.711151 0
M  V30 45 H 5.558387 -1.003844 -20.370641 0
M  V30 46 H 9.955584 5.068288 -13.028339 0
M  V30 47 H 11.399425 3.180348 -21.519353 0
M  V30 48 H 12.157278 2.884900 -19.980237 0
M  V30 49 H 11.119925 4.447506 -17.399192 0
M  V30 50 H 9.896197 3.733810 -16.398057 0
M  V30 51 H 7.863261 2.663509 -19.614054 0
M  V30 52 H 9.135495 -0.507393 -18.318562 0
M  V30 53 H 5.907730 -1.958237 -22.878576 0
M  V30 54 H 6.224342 6.238093 -11.292532 0
M  V30 55 H 11.100169 -1.431758 -21.339803 0
M  V30 56 H 10.886808 -2.107327 -22.937111 0
M  V30 57 H 9.888941 6.227044 -16.606617 0
M  V30 58 H 9.388177 6.122877 -18.248513 0
M  V30 59 H 9.515067 -3.411993 -21.503907 0
M  V30 60 H 8.857031 -2.078632 -20.659671 0
M  V30 61 H 6.280898 2.635108 -17.892095 0
M  V30 62 H 7.453069 2.902937 -16.619848 0
M  V30 63 H 11.161584 -0.104243 -17.368492 0
M  V30 64 H 12.072154 -0.265947 -18.845136 0
M  V30 65 H 7.434836 6.569367 -17.084670 0
M  V30 66 H 9.270774 -0.326612 -23.506581 0
M  V30 67 H 7.165376 0.079285 -23.573428 0
M  V30 68 H 5.696154 0.253318 -22.739252 0
M  V30 69 H 11.874599 2.002663 -17.224319 0
M  V30 70 H 11.602789 0.807532 -20.672139 0
M  V30 71 H 8.213403 -2.279036 -23.620562 0
M  V30 72 H 7.580145 -3.477184 -22.575416 0
M  V30 73 H 5.711596 4.702421 -14.698932 0
M  V30 74 H 5.560006 6.210608 -15.586855 0
M  V30 75 H 7.021788 5.014947 -18.769694 0
M  V30 76 H 5.880415 4.969254 -17.495532 0
M  V30 77 H 9.404699 1.587962 -17.198512 0
M  V30 78 H 6.540775 1.675977 -21.342497 0
M  V30 79 H 7.526831 0.478796 -20.603781 0
M  V30 80 H 8.586953 2.745453 -21.587228 0
M  V30 81 H 8.435922 1.979426 -23.096983 0
M  V30 82 H 10.654192 1.543534 -23.875207 0
M  V30 83 H 11.935031 0.781281 -22.817432 0
M  V30 END ATOM
M  V30 BEGIN BOND
M  V30 1 1 7 1
M  V30 2 2 9 7
M  V30 3 1 13 11 CFG=1
M  V30 4 1 13 12
M  V30 5 1 15 3
M  V30 6 1 16 1
M  V30 7 1 16 4
M  V30 8 1 16 8
M  V30 9 1 17 5
M  V30 10 2 18 1
M  V30 11 1 18 2
M  V30 12 1 20 14 CFG=3
M  V30 13 1 21 16
M  V30 14 1 21 17
M  V30 15 1 23 11
M  V30 16 1 24 22
M  V30 17 1 25 12
M  V30 18 1 26 20
M  V30 19 2 27 17
M  V30 20 1 28 23
M  V30 21 1 29 6
M  V30 22 1 29 22
M  V30 23 1 30 15
M  V30 24 1 31 26
M  V30 25 1 32 6
M  V30 26 1 32 10
M  V30 27 1 32 20
M  V30 28 1 33 15
M  V30 29 1 33 24
M  V30 30 1 34 2
M  V30 31 1 35 25
M  V30 32 1 35 28
M  V30 33 2 36 3
M  V30 34 2 37 9
M  V30 35 1 37 28
M  V30 36 1 37 34
M  V30 37 1 38 12
M  V30 38 1 38 13
M  V30 39 1 38 20
M  V30 40 1 39 10
M  V30 41 1 39 13
M  V30 42 2 39 19
M  V30 43 1 40 30
M  V30 44 1 6 41 CFG=3
M  V30 45 1 41 40
M  V30 46 1 42 6
M  V30 47 1 42 29
M  V30 48 1 43 2
M  V30 49 1 44 2
M  V30 50 1 45 3
M  V30 51 1 46 7
M  V30 52 1 47 10
M  V30 53 1 48 10
M  V30 54 1 49 11
M  V30 55 1 50 11
M  V30 56 1 12 51 CFG=3
M  V30 57 1 52 14
M  V30 58 1 15 53 CFG=3
M  V30 59 1 54 18
M  V30 60 1 55 22
M  V30 61 1 56 22
M  V30 62 1 57 23
M  V30 63 1 58 23
M  V30 64 1 59 24
M  V30 65 1 60 24
M  V30 66 1 61 25
M  V30 67 1 62 25
M  V30 68 1 63 26
M  V30 69 1 64 26
M  V30 70 1 28 65 CFG=3
M  V30 71 1 29 66 CFG=3
M  V30 72 1 67 30
M  V30 73 1 68 30
M  V30 74 1 69 31
M  V30 75 1 32 70 CFG=3
M  V30 76 1 71 33
M  V30 77 1 72 33
M  V30 78 1 73 34
M  V30 79 1 74 34
M  V30 80 1 75 35
M  V30 81 1 76 35
M  V30 82 1 38 77 CFG=1
M  V30 83 1 78 40
M  V30 84 1 79 40
M  V30 85 1 80 41
M  V30 86 1 81 41
M  V30 87 1 82 42
M  V30 88 1 83 42
M  V30 END BOND
M  V30 END CTAB
M  END
>  <i_epik_Tot_Q>  (1) 
-1

>  <i_epik_Tot_abs_Q>  (1) 
1

>  <i_i_glide_confnum>  (1) 
509

>  <i_i_glide_lignum>  (1) 
22

>  <i_i_glide_posenum>  (1) 
298

>  <i_i_glide_rotatable_bonds>  (1) 
9

>  <i_lp_mmshare_version>  (1) 
72125

>  <i_m_source_file_index>  (1) 
14

>  <i_f3d_flags>  (1) 
0

>  <num_sample>  (1) 
100

>  <b_lp_Chiralities_Consistent>  (1) 
1

>  <r_epik_Charging_Adjusted_Penalty>  (1) 
0.0089730796108065652

>  <r_epik_Ionization_Penalty>  (1) 
0.0044867090219468872

>  <r_epik_Ionization_Penalty_Charging>  (1) 
0.0044865398054032973

>  <r_epik_Ionization_Penalty_Neutral>  (1) 
1.6921654359002709e-07

>  <r_epik_State_Penalty>  (1) 
0.0044865398054032678

>  <r_glide_ring_energy>  (1) 
0

>  <r_i_docking_score>  (1) 
-2.9925632887622053

>  <r_i_glide_ecoul>  (1) 
-0.30386538361541426

>  <r_i_glide_eff_state_penalty>  (1) 
0.0044865398054032678

>  <r_i_glide_einternal>  (1) 
16.066020196453145

>  <r_i_glide_emodel>  (1) 
-20.522388370437813

>  <r_i_glide_emodel_strain>  (1) 
0.24456180345080725

>  <r_i_glide_energy>  (1) 
-26.447394328081206

>  <r_i_glide_erotb>  (1) 
0.1967937001840224

>  <r_i_glide_esite>  (1) 
-0.15008713706766846

>  <r_i_glide_evdw>  (1) 
-26.143528944465793

>  <r_i_glide_gscore>  (1) 
-2.9970498285676088

>  <r_i_glide_gscore_strain>  (1) 
0

>  <r_i_glide_hbond>  (1) 
0

>  <r_i_glide_ligand_efficiency>  (1) 
-0.07125150687529061

>  <r_i_glide_ligand_efficiency_ln>  (1) 
-0.63165301295249898

>  <r_i_glide_ligand_efficiency_sa>  (1) 
-0.24767213638682026

>  <r_i_glide_lipo>  (1) 
-1.1623940997171818

>  <r_i_glide_metal>  (1) 
-0

>  <r_i_glide_rewards>  (1) 
-0.52860603720117882

>  <r_lp_Energy>  (1) 
45.328569999999999

>  <r_lp_tautomer_probability>  (1) 
0.99985000999950013

>  <s_epik_Chemistry_Notes>  (1) 
This compound has an ester and may undergo hydrolysis at high or low pH. This is carbonic acid which has a microscopic pka value of about 3.8 however its equilibrium with CO2 as a lewis acid yields a pKa of about 6.35.

>  <s_epik_cmdline>  (1) 
J2VwaWtfcHl0aG9uJywgJy1waHQnLCAnMS4wJywgJy1waCcsICc3LjQnLCAnLXRuJywgJzgnLCAnLW1hJywgJzUwMCcsICctaW1hZScsICc8aW5maWxlLm1hZT4nLCAnLW9tYWUnLCAnPG91dGZpbGUubWFlPic=

>  <s_epik_input>  (1) 
W09IXUMoPU8pT0MoRikoRilDMT1bQ0hdW0NIMl1bQ0gyXUMoPUM9W0NIXTEpW0NAQEhdKFtDSDJdW0NIMl0yKVtDSDJdW0NIMl1bQ0BASF0oQzIzNClbQ0BIXTNbQ0BdKFtPSF0pKFtDSDJdW09IXSlbQ0BIXShbQ0gyXUM0PU8pW0NAXTU2W0NAQEhdKFtDSDJdNilbQ0gyXVtDSDJdW0NIMl1bQ0BASF0oW0NIXT1PKVtDSDJdW0NIMl1bQ0gyXTU=

>  <s_glide_docking_method>  (1) 
confgen

>  <s_i_glide_gridfile>  (1) 
gpcr_drd2_6luq_protein_autoprepared_prepared

>  <s_lp_Force_Field>  (1) 
S-OPLS

>  <s_lp_Variant>  (1) 
DiffSBDD_13_num_sample_100-1

>  <s_m_source_file>  (1) 
generated__ligand_DiffSBDD_2026-05-06_prepared.sdf

>  <GenAI_Model>  (1) 
DiffSBDD

>  <Protein>  (1) 
generic_title2

$$$$
DiffSBDD_14_num_sample_100
     RDKit          3D

  0  0  0  0  0  0  0  0  0  0999 V3000
M  V30 BEGIN CTAB
M  V30 COUNTS 60 64 0 0 1
M  V30 BEGIN ATOM
M  V30 1 C 8.918998 0.167950 -19.513973 0 CFG=1
M  V30 2 O 17.834784 4.972913 -16.691659 0 CHG=-1
M  V30 3 C 4.888792 -2.994918 -17.890573 0
M  V30 4 C 10.662728 4.945124 -17.828495 0 CFG=2
M  V30 5 C 13.425989 5.993313 -17.805981 0 CFG=1
M  V30 6 C 11.871855 3.999331 -17.646257 0
M  V30 7 S 8.111471 0.939288 -20.953118 0
M  V30 8 S 14.525030 3.872862 -16.680238 0
M  V30 9 O 16.831855 5.722931 -18.531559 0
M  V30 10 C 9.121721 1.703589 -17.550738 0 CFG=2
M  V30 11 C 12.240676 6.937644 -18.045457 0
M  V30 12 C 8.791131 3.218680 -17.375697 0 CFG=2
M  V30 13 C 6.678536 -1.060762 -18.853686 0 CFG=1
M  V30 14 C 7.259449 3.296762 -17.269424 0
M  V30 15 C 9.391959 4.255034 -18.363467 0
M  V30 16 C 9.856089 1.167921 -18.810088 0
M  V30 17 C 14.602326 6.588844 -17.030618 0
M  V30 18 C 6.807146 -0.274073 -21.276932 0
M  V30 19 C 5.911212 -0.465787 -20.048648 0
M  V30 20 C 6.733154 2.014427 -17.891720 0
M  V30 21 C 13.003816 4.786870 -16.973523 0 CFG=1
M  V30 22 C 7.937338 -0.265630 -18.410738 0 CFG=2
M  V30 23 C 16.837768 5.369302 -17.332005 0
M  V30 24 C 15.505288 5.409884 -16.578207 0 CFG=2
M  V30 25 C 7.775201 0.964083 -17.499807 0 CFG=1
M  V30 26 C 11.064774 6.169410 -18.682197 0
M  V30 27 S 5.560454 -1.369940 -17.450065 0
M  V30 28 H 9.477156 -0.693146 -19.883385 0
M  V30 29 H 4.235875 -3.356025 -17.095858 0
M  V30 30 H 5.693084 -3.719032 -18.019099 0
M  V30 31 H 4.313675 -2.938276 -18.814467 0
M  V30 32 H 10.405319 5.337223 -16.842757 0
M  V30 33 H 13.793020 5.645205 -18.773664 0
M  V30 34 H 11.606800 3.144554 -17.024647 0
M  V30 35 H 12.197842 3.603880 -18.608894 0
M  V30 36 H 9.713859 1.388883 -16.691681 0
M  V30 37 H 11.927848 7.369199 -17.094954 0
M  V30 38 H 12.540205 7.769944 -18.683282 0
M  V30 39 H 9.146106 3.500124 -16.383096 0
M  V30 40 H 7.042832 -2.038710 -19.171221 0
M  V30 41 H 6.987763 3.317677 -16.213051 0
M  V30 42 H 6.818554 4.181725 -17.728548 0
M  V30 43 H 8.662675 5.053478 -18.500197 0
M  V30 44 H 9.530325 3.865457 -19.368528 0
M  V30 45 H 10.742432 0.626892 -18.475975 0
M  V30 46 H 10.233723 1.922393 -19.493837 0
M  V30 47 H 15.125350 7.342592 -17.621189 0
M  V30 48 H 14.227986 7.105346 -16.146240 0
M  V30 49 H 6.211684 0.072900 -22.121989 0
M  V30 50 H 7.261686 -1.219857 -21.573132 0
M  V30 51 H 5.432635 0.474820 -19.780683 0
M  V30 52 H 5.095360 -1.136453 -20.320038 0
M  V30 53 H 5.732531 1.757850 -17.545558 0
M  V30 54 H 6.684605 2.159290 -18.967451 0
M  V30 55 H 12.657488 5.128868 -15.996140 0
M  V30 56 H 8.500699 -0.971327 -17.796433 0
M  V30 57 H 15.743412 5.561590 -15.524212 0
M  V30 58 H 7.571272 0.648983 -16.474910 0
M  V30 59 H 11.338337 5.844354 -19.686955 0
M  V30 60 H 10.215352 6.842940 -18.799785 0
M  V30 END ATOM
M  V30 BEGIN BOND
M  V30 1 1 6 4
M  V30 2 1 7 1
M  V30 3 1 11 5
M  V30 4 1 12 10
M  V30 5 1 14 12
M  V30 6 1 15 4
M  V30 7 1 15 12
M  V30 8 1 16 1
M  V30 9 1 16 10
M  V30 10 1 17 5
M  V30 11 1 18 7
M  V30 12 1 19 13
M  V30 13 1 19 18
M  V30 14 1 20 14
M  V30 15 1 21 5
M  V30 16 1 21 6
M  V30 17 1 21 8
M  V30 18 1 22 1
M  V30 19 1 22 13
M  V30 20 1 23 2
M  V30 21 2 23 9
M  V30 22 1 24 8
M  V30 23 1 24 17
M  V30 24 1 24 23
M  V30 25 1 25 10
M  V30 26 1 25 20
M  V30 27 1 25 22
M  V30 28 1 26 4
M  V30 29 1 26 11
M  V30 30 1 27 3
M  V30 31 1 27 13
M  V30 32 1 1 28 CFG=3
M  V30 33 1 29 3
M  V30 34 1 30 3
M  V30 35 1 31 3
M  V30 36 1 4 32 CFG=1
M  V30 37 1 5 33 CFG=3
M  V30 38 1 34 6
M  V30 39 1 35 6
M  V30 40 1 10 36 CFG=1
M  V30 41 1 37 11
M  V30 42 1 38 11
M  V30 43 1 12 39 CFG=1
M  V30 44 1 13 40 CFG=3
M  V30 45 1 41 14
M  V30 46 1 42 14
M  V30 47 1 43 15
M  V30 48 1 44 15
M  V30 49 1 45 16
M  V30 50 1 46 16
M  V30 51 1 47 17
M  V30 52 1 48 17
M  V30 53 1 49 18
M  V30 54 1 50 18
M  V30 55 1 51 19
M  V30 56 1 52 19
M  V30 57 1 53 20
M  V30 58 1 54 20
M  V30 59 1 21 55 CFG=1
M  V30 60 1 22 56 CFG=1
M  V30 61 1 24 57 CFG=1
M  V30 62 1 25 58 CFG=1
M  V30 63 1 59 26
M  V30 64 1 60 26
M  V30 END BOND
M  V30 END CTAB
M  END
>  <i_epik_Tot_Q>  (1) 
-1

>  <i_epik_Tot_abs_Q>  (1) 
1

>  <i_i_glide_confnum>  (1) 
5

>  <i_i_glide_lignum>  (1) 
23

>  <i_i_glide_posenum>  (1) 
395

>  <i_i_glide_rotatable_bonds>  (1) 
4

>  <i_lp_mmshare_version>  (1) 
72125

>  <i_m_source_file_index>  (1) 
15

>  <i_f3d_flags>  (1) 
0

>  <num_sample>  (1) 
100

>  <b_lp_Chiralities_Consistent>  (1) 
1

>  <r_epik_Charging_Adjusted_Penalty>  (1) 
0.00032590960807401398

>  <r_epik_Ionization_Penalty>  (1) 
0.00032590960807401398

>  <r_epik_Ionization_Penalty_Charging>  (1) 
0.00032590960807401398

>  <r_epik_Ionization_Penalty_Neutral>  (1) 
0

>  <r_epik_State_Penalty>  (1) 
-0

>  <r_glide_ring_energy>  (1) 
0

>  <r_i_docking_score>  (1) 
-2.9924188808429291

>  <r_i_glide_ecoul>  (1) 
-2.9701400873493666

>  <r_i_glide_eff_state_penalty>  (1) 
-0

>  <r_i_glide_einternal>  (1) 
6.2906909815835483

>  <r_i_glide_emodel>  (1) 
-25.820945807840225

>  <r_i_glide_emodel_strain>  (1) 
0.31951078849658643

>  <r_i_glide_energy>  (1) 
-25.35301506829023

>  <r_i_glide_erotb>  (1) 
0.21895561960484411

>  <r_i_glide_esite>  (1) 
-0.012848296785482216

>  <r_i_glide_evdw>  (1) 
-22.382874980940862

>  <r_i_glide_gscore>  (1) 
-2.9924188808429291

>  <r_i_glide_gscore_strain>  (1) 
0

>  <r_i_glide_hbond>  (1) 
-0.15885575132540333

>  <r_i_glide_ligand_efficiency>  (1) 
-0.11083032892010848

>  <r_i_glide_ligand_efficiency_ln>  (1) 
-0.69658578157933093

>  <r_i_glide_ligand_efficiency_sa>  (1) 
-0.33249098676032551

>  <r_i_glide_lipo>  (1) 
-0.96840871291471176

>  <r_i_glide_metal>  (1) 
-0

>  <r_i_glide_rewards>  (1) 
-0.50659697727272834

>  <r_lp_Energy>  (1) 
33.503946999999997

>  <r_lp_tautomer_probability>  (1) 
1

>  <s_epik_cmdline>  (1) 
J2VwaWtfcHl0aG9uJywgJy1waHQnLCAnMS4wJywgJy1waCcsICc3LjQnLCAnLXRuJywgJzgnLCAnLW1hJywgJzUwMCcsICctaW1hZScsICc8aW5maWxlLm1hZT4nLCAnLW9tYWUnLCAnPG91dGZpbGUubWFlPic=

>  <s_epik_input>  (1) 
UzFbQ0gyXVtDSDJdW0NASF0oU1tDSDNdKVtDQEBIXShbQ0BASF0xMilbQ0BIXTNbQ0BASF0oW0NIMl0yKVtDQEhdKFtDSDJdW0NIMl0zKVtDSDJdW0NASF0oW0NIMl1bQ0gyXTQpW0NIMl1bQ0BIXShbQ0BASF00NSlTW0NASF0oW0NIMl01KUMoPU8pW09IXQ==

>  <s_glide_docking_method>  (1) 
confgen

>  <s_i_glide_gridfile>  (1) 
gpcr_drd2_6luq_protein_autoprepared_prepared

>  <s_lp_Force_Field>  (1) 
S-OPLS

>  <s_lp_Variant>  (1) 
DiffSBDD_14_num_sample_100-1

>  <s_m_source_file>  (1) 
generated__ligand_DiffSBDD_2026-05-06_prepared.sdf

>  <GenAI_Model>  (1) 
DiffSBDD

>  <Protein>  (1) 
generic_title2

$$$$
DiffSBDD_1_num_sample_100
     RDKit          3D

  0  0  0  0  0  0  0  0  0  0999 V3000
M  V30 BEGIN CTAB
M  V30 COUNTS 36 37 0 0 1
M  V30 BEGIN ATOM
M  V30 1 C 7.472264 1.681363 -15.598314 0
M  V30 2 C 5.546986 -0.994653 -17.845145 0 CFG=2
M  V30 3 C 6.696016 -2.021547 -17.969447 0 CFG=1
M  V30 4 Cl 6.453896 -3.098129 -19.371528 0
M  V30 5 O 8.527511 1.693349 -18.766939 0
M  V30 6 C 8.100719 -1.396484 -18.007278 0
M  V30 7 C 5.882137 0.386086 -19.839209 0
M  V30 8 C 8.294044 -0.364615 -16.883979 0
M  V30 9 C 6.141933 1.719022 -19.132504 0
M  V30 10 C 7.218178 0.762815 -16.849003 0 CFG=1
M  V30 11 O 5.081989 0.969365 -13.739140 0
M  V30 12 O 5.051541 -0.467538 -19.072945 0
M  V30 13 P 6.319000 0.273107 -13.329837 0
M  V30 14 C 5.832698 0.069318 -16.764100 0
M  V30 15 O 6.634493 0.169307 -11.891667 0 CHG=-1
M  V30 16 C 7.769454 1.101606 -14.188060 0
M  V30 17 C 7.283497 1.737449 -18.092424 0 CFG=1
M  V30 18 H 6.634878 2.373644 -15.497484 0
M  V30 19 H 8.333310 2.311930 -15.823964 0
M  V30 20 H 4.686150 -1.560767 -17.485673 0
M  V30 21 H 6.651562 -2.667043 -17.091709 0
M  V30 22 H 9.212882 1.824108 -18.129529 0
M  V30 23 H 8.841506 -2.187705 -17.890973 0
M  V30 24 H 8.313161 -0.947373 -18.973171 0
M  V30 25 H 5.322636 0.594175 -20.751148 0
M  V30 26 H 6.794049 -0.100674 -20.173352 0
M  V30 27 H 8.263761 -0.920783 -15.947325 0
M  V30 28 H 9.298537 0.054337 -16.938023 0
M  V30 29 H 6.377458 2.461899 -19.895870 0
M  V30 30 H 5.212663 2.070444 -18.683224 0
M  V30 31 H 5.034889 0.803524 -16.709265 0
M  V30 32 H 5.767092 -0.481206 -15.836881 0
M  V30 33 H 8.620178 0.423042 -14.214400 0
M  V30 34 H 8.091725 1.921942 -13.546924 0
M  V30 35 H 7.240253 2.762492 -17.721416 0
M  V30 36 H 6.322739 -1.030382 -13.864085 0
M  V30 END ATOM
M  V30 BEGIN BOND
M  V30 1 1 3 2
M  V30 2 1 4 3
M  V30 3 1 6 3
M  V30 4 1 8 6
M  V30 5 1 9 7
M  V30 6 1 10 1 CFG=1
M  V30 7 1 10 8
M  V30 8 1 12 2
M  V30 9 1 12 7
M  V30 10 2 13 11
M  V30 11 1 14 2
M  V30 12 1 14 10
M  V30 13 1 15 13
M  V30 14 1 16 1
M  V30 15 1 16 13
M  V30 16 1 17 5
M  V30 17 1 17 9
M  V30 18 1 17 10
M  V30 19 1 18 1
M  V30 20 1 19 1
M  V30 21 1 2 20 CFG=1
M  V30 22 1 3 21 CFG=1
M  V30 23 1 22 5
M  V30 24 1 23 6
M  V30 25 1 24 6
M  V30 26 1 25 7
M  V30 27 1 26 7
M  V30 28 1 27 8
M  V30 29 1 28 8
M  V30 30 1 29 9
M  V30 31 1 30 9
M  V30 32 1 31 14
M  V30 33 1 32 14
M  V30 34 1 33 16
M  V30 35 1 34 16
M  V30 36 1 17 35 CFG=1
M  V30 37 1 36 13
M  V30 END BOND
M  V30 END CTAB
M  END
>  <i_epik_Tot_Q>  (1) 
-1

>  <i_epik_Tot_abs_Q>  (1) 
1

>  <i_i_glide_confnum>  (1) 
4

>  <i_i_glide_lignum>  (1) 
3

>  <i_i_glide_posenum>  (1) 
104

>  <i_i_glide_rotatable_bonds>  (1) 
4

>  <i_lp_mmshare_version>  (1) 
72125

>  <i_m_source_file_index>  (1) 
2

>  <i_f3d_flags>  (1) 
0

>  <num_sample>  (1) 
100

>  <b_lp_Chiralities_Consistent>  (1) 
1

>  <r_epik_Charging_Adjusted_Penalty>  (1) 
1.9889919217114435e-05

>  <r_epik_Ionization_Penalty>  (1) 
1.9962460467374035e-05

>  <r_epik_Ionization_Penalty_Charging>  (1) 
1.9889919217114435e-05

>  <r_epik_Ionization_Penalty_Neutral>  (1) 
7.2541250259600902e-08

>  <r_epik_State_Penalty>  (1) 
-0

>  <r_glide_ring_energy>  (1) 
0

>  <r_i_docking_score>  (1) 
-2.991293178347298

>  <r_i_glide_ecoul>  (1) 
-0.85324121833253197

>  <r_i_glide_eff_state_penalty>  (1) 
-0

>  <r_i_glide_einternal>  (1) 
1.9109601037874402

>  <r_i_glide_emodel>  (1) 
-24.447438061522107

>  <r_i_glide_emodel_strain>  (1) 
0

>  <r_i_glide_energy>  (1) 
-21.478633413742635

>  <r_i_glide_erotb>  (1) 
0.45571271474972769

>  <r_i_glide_esite>  (1) 
-0.0047335045051396969

>  <r_i_glide_evdw>  (1) 
-20.625392195410104

>  <r_i_glide_gscore>  (1) 
-2.991293178347298

>  <r_i_glide_gscore_strain>  (1) 
0

>  <r_i_glide_hbond>  (1) 
0

>  <r_i_glide_ligand_efficiency>  (1) 
-0.17595842225572342

>  <r_i_glide_ligand_efficiency_ln>  (1) 
-0.78036177740683277

>  <r_i_glide_ligand_efficiency_sa>  (1) 
-0.45243865186741

>  <r_i_glide_lipo>  (1) 
-0.79459714152604732

>  <r_i_glide_metal>  (1) 
-0

>  <r_i_glide_rewards>  (1) 
-1.4884194545454539

>  <r_lp_Energy>  (1) 
23.177799999999998

>  <r_lp_tautomer_probability>  (1) 
1

>  <s_epik_cmdline>  (1) 
J2VwaWtfcHl0aG9uJywgJy1waHQnLCAnMS4wJywgJy1waCcsICc3LjQnLCAnLXRuJywgJzgnLCAnLW1hJywgJzUwMCcsICctaW1hZScsICc8aW5maWxlLm1hZT4nLCAnLW9tYWUnLCAnPG91dGZpbGUubWFlPic=

>  <s_epik_input>  (1) 
W09IXVAoW09IXSlbQ0gyXVtDSDJdW0NAQF0xMltDSDJdW0NIMl1bQ0BIXShDbClbQ0BASF0oW0NIMl0xKU9bQ0gyXVtDSDJdW0NAQEhdMltPSF0=

>  <s_glide_docking_method>  (1) 
confgen

>  <s_i_glide_gridfile>  (1) 
gpcr_drd2_6luq_protein_autoprepared_prepared

>  <s_lp_Force_Field>  (1) 
S-OPLS

>  <s_lp_Variant>  (1) 
DiffSBDD_1_num_sample_100-1

>  <s_m_source_file>  (1) 
generated__ligand_DiffSBDD_2026-05-06_prepared.sdf

>  <GenAI_Model>  (1) 
DiffSBDD

>  <Protein>  (1) 
generic_title2

$$$$
DiffSBDD_69_num_sample_100
     RDKit          3D

  0  0  0  0  0  0  0  0  0  0999 V3000
M  V30 BEGIN CTAB
M  V30 COUNTS 56 58 0 0 1
M  V30 BEGIN ATOM
M  V30 1 C 5.434865 5.294646 -12.567871 0
M  V30 2 C 12.064818 4.665716 -17.977860 0
M  V30 3 C 8.823531 4.918693 -10.637002 0
M  V30 4 C 7.351177 1.216981 -19.829601 0 CFG=2
M  V30 5 N 7.147026 1.760375 -14.120853 0
M  V30 6 O 6.918671 3.451030 -12.686037 0
M  V30 7 O 7.503532 2.743207 -21.667379 0
M  V30 8 N 7.126208 1.443795 -16.584108 0
M  V30 9 C 6.627886 0.185220 -16.027734 0 CFG=1
M  V30 10 C 10.163248 5.122829 -16.604289 0
M  V30 11 C 7.321649 5.124034 -10.906808 0
M  V30 12 C 11.504383 5.321795 -16.961603 0
M  V30 13 C 6.768033 2.158133 -20.877372 0
M  V30 14 C 13.539930 5.949202 -17.115887 0
M  V30 15 O 13.350441 4.971071 -18.184212 0
M  V30 16 C 6.877831 4.841556 -12.351024 0 CFG=2
M  V30 17 O 12.327694 6.167220 -16.333391 0
M  V30 18 C 9.389019 4.200104 -17.344436 0
M  V30 19 F 5.435507 2.332370 -20.923770 0
M  V30 20 C 9.984672 3.495965 -18.432542 0
M  V30 21 C 11.342850 3.739177 -18.749207 0
M  V30 22 C 9.315219 5.555827 -9.313437 0 CFG=1
M  V30 23 O 8.234833 3.786598 -14.508296 0
M  V30 24 O 9.434838 6.958954 -9.455203 0
M  V30 25 O 7.197473 -0.932464 -16.691669 0
M  V30 26 C 8.034841 2.038519 -18.691859 0 CFG=1
M  V30 27 C 7.505041 3.066788 -13.834224 0
M  V30 28 O 8.235755 1.230998 -17.524196 0
M  V30 29 O 8.228546 0.413179 -20.388687 0 CHG=-1
M  V30 30 C 8.454686 5.239719 -8.085500 0
M  V30 31 C 7.607433 1.044882 -15.269219 0 CFG=2
M  V30 32 O 9.262103 2.590055 -19.184248 0
M  V30 33 H 5.321789 6.358788 -12.359061 0
M  V30 34 H 4.766329 4.744139 -11.904899 0
M  V30 35 H 5.113316 5.120896 -13.594919 0
M  V30 36 H 9.037618 3.849427 -10.643082 0
M  V30 37 H 9.405836 5.331771 -11.462287 0
M  V30 38 H 6.461430 0.795909 -19.359614 0
M  V30 39 H 6.534637 1.299895 -13.465112 0
M  V30 40 H 5.592318 0.089689 -15.707279 0
M  V30 41 H 9.729173 5.663964 -15.777193 0
M  V30 42 H 6.726869 4.526090 -10.215297 0
M  V30 43 H 7.085700 6.167892 -10.692188 0
M  V30 44 H 14.327066 5.595015 -16.448861 0
M  V30 45 H 13.851576 6.898432 -17.554370 0
M  V30 46 H 7.514904 5.435579 -13.007705 0
M  V30 47 H 8.357526 4.037312 -17.081299 0
M  V30 48 H 11.816073 3.220097 -19.569312 0
M  V30 49 H 10.307108 5.183379 -9.091641 0
M  V30 50 H 8.542309 7.324089 -9.491653 0
M  V30 51 H 7.434930 -1.596267 -16.052695 0
M  V30 52 H 7.356351 2.865679 -18.473670 0
M  V30 53 H 8.413132 4.169356 -7.891983 0
M  V30 54 H 7.434861 5.587356 -8.221165 0
M  V30 55 H 8.850270 5.724615 -7.192239 0
M  V30 56 H 8.634815 0.691514 -15.212374 0
M  V30 END ATOM
M  V30 BEGIN BOND
M  V30 1 1 9 8
M  V30 2 1 11 3
M  V30 3 2 12 2
M  V30 4 1 12 10
M  V30 5 1 13 4
M  V30 6 2 13 7
M  V30 7 1 15 2
M  V30 8 1 15 14
M  V30 9 1 16 1
M  V30 10 1 16 6
M  V30 11 1 16 11
M  V30 12 1 17 12
M  V30 13 1 17 14
M  V30 14 2 18 10
M  V30 15 1 19 13
M  V30 16 1 20 18
M  V30 17 1 21 2
M  V30 18 2 21 20
M  V30 19 1 22 3
M  V30 20 1 24 22
M  V30 21 1 25 9
M  V30 22 1 26 4
M  V30 23 1 27 5
M  V30 24 1 27 6
M  V30 25 2 27 23
M  V30 26 1 28 8
M  V30 27 1 28 26
M  V30 28 1 29 4
M  V30 29 1 30 22
M  V30 30 1 31 5
M  V30 31 1 31 8
M  V30 32 1 31 9
M  V30 33 1 32 20
M  V30 34 1 32 26
M  V30 35 1 33 1
M  V30 36 1 34 1
M  V30 37 1 35 1
M  V30 38 1 36 3
M  V30 39 1 37 3
M  V30 40 1 4 38 CFG=1
M  V30 41 1 39 5
M  V30 42 1 9 40 CFG=1
M  V30 43 1 41 10
M  V30 44 1 42 11
M  V30 45 1 43 11
M  V30 46 1 44 14
M  V30 47 1 45 14
M  V30 48 1 16 46 CFG=3
M  V30 49 1 47 18
M  V30 50 1 48 21
M  V30 51 1 22 49 CFG=1
M  V30 52 1 50 24
M  V30 53 1 51 25
M  V30 54 1 26 52 CFG=1
M  V30 55 1 53 30
M  V30 56 1 54 30
M  V30 57 1 55 30
M  V30 58 1 31 56 CFG=3
M  V30 END BOND
M  V30 END CTAB
M  END
>  <i_epik_Tot_Q>  (1) 
-1

>  <i_epik_Tot_abs_Q>  (1) 
1

>  <i_i_glide_confnum>  (1) 
648

>  <i_i_glide_lignum>  (1) 
139

>  <i_i_glide_posenum>  (1) 
241

>  <i_i_glide_rotatable_bonds>  (1) 
15

>  <i_lp_mmshare_version>  (1) 
72125

>  <i_m_source_file_index>  (1) 
70

>  <i_f3d_flags>  (1) 
0

>  <num_sample>  (1) 
100

>  <b_lp_Chiralities_Consistent>  (1) 
1

>  <r_epik_Charging_Adjusted_Penalty>  (1) 
0.75931899185534724

>  <r_epik_Ionization_Penalty>  (1) 
0.3796836148010711

>  <r_epik_Ionization_Penalty_Charging>  (1) 
0.37965949592767362

>  <r_epik_Ionization_Penalty_Neutral>  (1) 
2.4118873397482059e-05

>  <r_epik_State_Penalty>  (1) 
0.37965949592767362

>  <r_glide_ring_energy>  (1) 
0

>  <r_i_docking_score>  (1) 
-2.9728952193458409

>  <r_i_glide_ecoul>  (1) 
-7.4001308469946618

>  <r_i_glide_eff_state_penalty>  (1) 
0.37965949592767362

>  <r_i_glide_einternal>  (1) 
6.5105780410468741

>  <r_i_glide_emodel>  (1) 
-40.0236330590756

>  <r_i_glide_emodel_strain>  (1) 
1.1188743828828578

>  <r_i_glide_energy>  (1) 
-35.580552540363797

>  <r_i_glide_erotb>  (1) 
1.0486485046790583

>  <r_i_glide_esite>  (1) 
0

>  <r_i_glide_evdw>  (1) 
-28.180421693369134

>  <r_i_glide_gscore>  (1) 
-3.3525547152735147

>  <r_i_glide_gscore_strain>  (1) 
0

>  <r_i_glide_hbond>  (1) 
-0.45599999999999996

>  <r_i_glide_ligand_efficiency>  (1) 
-0.092902975604557528

>  <r_i_glide_ligand_efficiency_ln>  (1) 
-0.66571227767455488

>  <r_i_glide_ligand_efficiency_sa>  (1) 
-0.29494856241130124

>  <r_i_glide_lipo>  (1) 
-0.39689891350283957

>  <r_i_glide_metal>  (1) 
-0

>  <r_i_glide_rewards>  (1) 
-1.0292635947320776

>  <r_lp_Energy>  (1) 
45.431683

>  <r_lp_tautomer_probability>  (1) 
1

>  <s_epik_Chemistry_Notes>  (1) 
This compound has an ester and may undergo hydrolysis at high or low pH. This compound contains an acetal/aminal-like group ( X-CH(R)-Y where X, Y are N, S, or O) that may be acid/base labile, releasing an aldehyde. This compound has a N-S or N-O group and may undergo hydrolysis at high or low pH.

>  <s_epik_cmdline>  (1) 
J2VwaWtfcHl0aG9uJywgJy1waHQnLCAnMS4wJywgJy1waCcsICc3LjQnLCAnLXRuJywgJzgnLCAnLW1hJywgJzUwMCcsICctaW1hZScsICc8aW5maWxlLm1hZT4nLCAnLW9tYWUnLCAnPG91dGZpbGUubWFlPic=

>  <s_epik_input>  (1) 
W09IXVtDQEBIXShbQ0gzXSlbQ0gyXVtDSDJdW0NASF0oW0NIM10pT0MoPU8pW05IXVtDQEhdMVtDSF0oW09IXSlbTkBAXTFPW0NASF0oW0NAQEhdKEMoPU8pRilbT0hdKU9jKFtjSF0yKVtjSF1bY0hdYyhjMjMpT1tDSDJdTzM=

>  <s_glide_docking_method>  (1) 
confgen

>  <s_i_glide_gridfile>  (1) 
gpcr_drd2_6luq_protein_autoprepared_prepared

>  <s_lp_Force_Field>  (1) 
S-OPLS

>  <s_lp_Variant>  (1) 
DiffSBDD_69_num_sample_100-1

>  <s_m_source_file>  (1) 
generated__ligand_DiffSBDD_2026-05-06_prepared.sdf

>  <GenAI_Model>  (1) 
DiffSBDD

>  <Protein>  (1) 
generic_title2

$$$$
DiffSBDD_55_num_sample_100
     RDKit          3D

  0  0  0  0  0  0  0  0  0  0999 V3000
M  V30 BEGIN CTAB
M  V30 COUNTS 50 53 0 0 1
M  V30 BEGIN ATOM
M  V30 1 O 8.104110 -3.169111 -18.342778 0
M  V30 2 C 7.271869 6.343102 -12.773058 0
M  V30 3 C 5.026967 -0.628640 -16.757873 0
M  V30 4 C 5.581436 0.350009 -13.929086 0
M  V30 5 C 7.070230 -0.230692 -18.696009 0 CFG=2
M  V30 6 C 6.304217 -1.550293 -18.742312 0 CFG=1
M  V30 7 S 8.818832 4.169376 -12.265355 0
M  V30 8 C 8.591114 5.960299 -12.092916 0
M  V30 9 C 7.021298 5.300416 -13.853371 0
M  V30 10 C 6.850389 -5.033033 -18.890880 0
M  V30 11 N 5.944852 0.484150 -16.458913 0
M  V30 12 C 7.187810 -2.685316 -19.326282 0 CFG=2
M  V30 13 C 5.689674 -1.876832 -17.362265 0 CFG=2
M  V30 14 C 6.432851 -3.924722 -19.839292 0
M  V30 15 C 8.234712 -4.578733 -18.460242 0
M  V30 16 C 7.138660 2.792700 -13.983356 0
M  V30 17 C 6.554765 0.569123 -15.107578 0 CFG=1
M  V30 18 C 7.933734 4.076884 -13.839908 0 CFG=2
M  V30 19 C 8.165973 0.019417 -17.691655 0
M  V30 20 O 6.131874 5.439300 -14.691792 0
M  V30 21 O 4.707158 -2.887453 -17.491658 0
M  V30 22 C 7.352911 1.875350 -14.950334 0
M  V30 23 C 6.855084 0.780197 -17.575887 0 CFG=1
M  V30 24 H 6.449946 6.306066 -12.057400 0
M  V30 25 H 7.309381 7.348396 -13.192945 0
M  V30 26 H 4.294764 -0.269637 -17.482195 0
M  V30 27 H 4.428793 -0.898667 -15.891904 0
M  V30 28 H 6.107037 0.380962 -12.974186 0
M  V30 29 H 4.774149 1.080201 -13.891703 0
M  V30 30 H 5.127047 -0.630640 -13.973235 0
M  V30 31 H 7.254281 0.187847 -19.683650 0
M  V30 32 H 5.481877 -1.377681 -19.438460 0
M  V30 33 H 8.598624 6.246791 -11.040367 0
M  V30 34 H 9.424784 6.466890 -12.580399 0
M  V30 35 H 6.849411 -6.018896 -19.355839 0
M  V30 36 H 6.186403 -5.063838 -18.026664 0
M  V30 37 H 7.769218 -2.286659 -20.159003 0
M  V30 38 H 6.464552 -2.232821 -16.691665 0
M  V30 39 H 5.351304 -3.794786 -19.880191 0
M  V30 40 H 6.767037 -4.163278 -20.849594 0
M  V30 41 H 8.973547 -4.813083 -19.227896 0
M  V30 42 H 8.557531 -5.031352 -17.522186 0
M  V30 43 H 6.361375 2.633451 -13.252752 0
M  V30 44 H 7.292220 -0.230323 -15.028191 0
M  V30 45 H 8.650557 4.170511 -14.655852 0
M  V30 46 H 9.036590 0.576021 -18.031765 0
M  V30 47 H 8.379300 -0.772597 -16.976481 0
M  V30 48 H 4.557072 -3.276046 -16.630668 0
M  V30 49 H 8.135647 2.048626 -15.673618 0
M  V30 50 H 6.865888 1.840950 -17.819541 0
M  V30 END ATOM
M  V30 BEGIN BOND
M  V30 1 1 6 5
M  V30 2 1 8 2
M  V30 3 1 8 7
M  V30 4 1 9 2
M  V30 5 1 11 3
M  V30 6 1 12 1
M  V30 7 1 12 6
M  V30 8 1 13 3
M  V30 9 1 13 6
M  V30 10 1 14 10
M  V30 11 1 14 12
M  V30 12 1 15 1
M  V30 13 1 15 10
M  V30 14 1 17 4
M  V30 15 1 17 11
M  V30 16 1 18 7
M  V30 17 1 18 9
M  V30 18 1 18 16
M  V30 19 1 19 5
M  V30 20 2 20 9
M  V30 21 1 21 13
M  V30 22 2 22 16
M  V30 23 1 22 17
M  V30 24 1 23 5
M  V30 25 1 23 11
M  V30 26 1 23 19
M  V30 27 1 24 2
M  V30 28 1 25 2
M  V30 29 1 26 3
M  V30 30 1 27 3
M  V30 31 1 28 4
M  V30 32 1 29 4
M  V30 33 1 30 4
M  V30 34 1 5 31 CFG=3
M  V30 35 1 6 32 CFG=3
M  V30 36 1 33 8
M  V30 37 1 34 8
M  V30 38 1 35 10
M  V30 39 1 36 10
M  V30 40 1 12 37 CFG=3
M  V30 41 1 13 38 CFG=1
M  V30 42 1 39 14
M  V30 43 1 40 14
M  V30 44 1 41 15
M  V30 45 1 42 15
M  V30 46 1 43 16
M  V30 47 1 17 44 CFG=3
M  V30 48 1 18 45 CFG=3
M  V30 49 1 46 19
M  V30 50 1 47 19
M  V30 51 1 48 21
M  V30 52 1 49 22
M  V30 53 1 23 50 CFG=3
M  V30 END BOND
M  V30 END CTAB
M  END
>  <i_epik_Tot_Q>  (1) 
0

>  <i_epik_Tot_abs_Q>  (1) 
0

>  <i_i_glide_confnum>  (1) 
126

>  <i_i_glide_lignum>  (1) 
110

>  <i_i_glide_posenum>  (1) 
31

>  <i_i_glide_rotatable_bonds>  (1) 
5

>  <i_lp_mmshare_version>  (1) 
72125

>  <i_m_source_file_index>  (1) 
56

>  <i_f3d_flags>  (1) 
0

>  <num_sample>  (1) 
100

>  <b_lp_Chiralities_Consistent>  (1) 
1

>  <r_epik_Charging_Adjusted_Penalty>  (1) 
1.1351003249830234

>  <r_epik_Ionization_Penalty>  (1) 
1.13510036387319

>  <r_epik_Ionization_Penalty_Charging>  (1) 
0

>  <r_epik_Ionization_Penalty_Neutral>  (1) 
1.13510036387319

>  <r_epik_State_Penalty>  (1) 
1.1351003249830234

>  <r_glide_ring_energy>  (1) 
1.1829721722469759

>  <r_i_docking_score>  (1) 
-2.9709882902407339

>  <r_i_glide_ecoul>  (1) 
-1.8818451857890217

>  <r_i_glide_eff_state_penalty>  (1) 
1.1351003249830234

>  <r_i_glide_einternal>  (1) 
6.0450094478377849

>  <r_i_glide_emodel>  (1) 
-32.855565611511814

>  <r_i_glide_emodel_strain>  (1) 
0.13255689339196408

>  <r_i_glide_energy>  (1) 
-31.031483852280275

>  <r_i_glide_erotb>  (1) 
0.4978175189556282

>  <r_i_glide_esite>  (1) 
0

>  <r_i_glide_evdw>  (1) 
-29.149638666491253

>  <r_i_glide_gscore>  (1) 
-4.106088615223757

>  <r_i_glide_gscore_strain>  (1) 
0

>  <r_i_glide_hbond>  (1) 
-0.16

>  <r_i_glide_ligand_efficiency>  (1) 
-0.12917340392351018

>  <r_i_glide_ligand_efficiency_ln>  (1) 
-0.71841190801260058

>  <r_i_glide_ligand_efficiency_sa>  (1) 
-0.36735197809309922

>  <r_i_glide_lipo>  (1) 
-1.1737899099210622

>  <r_i_glide_metal>  (1) 
-0

>  <r_i_glide_rewards>  (1) 
-1.5303575130654063

>  <r_lp_Energy>  (1) 
17.093762999999999

>  <r_lp_tautomer_probability>  (1) 
0.99995000000000001

>  <s_epik_cmdline>  (1) 
J2VwaWtfcHl0aG9uJywgJy1waHQnLCAnMS4wJywgJy1waCcsICc3LjQnLCAnLXRuJywgJzgnLCAnLW1hJywgJzUwMCcsICctaW1hZScsICc8aW5maWxlLm1hZT4nLCAnLW9tYWUnLCAnPG91dGZpbGUubWFlPic=

>  <s_epik_input>  (1) 
W0NIMl0xW0NIMl1bQ0gyXU9bQ0BASF0xW0NASF0yW0NASF0oW09IXSlbQ0gyXU4oW0NASF0oW0NASF0yMylbQ0gyXTMpW0NASF0oW0NIM10pXFtDSF09W0NIXVxbQ0BASF00U1tDSDJdW0NIMl1DND1P

>  <s_glide_docking_method>  (1) 
confgen

>  <s_i_glide_gridfile>  (1) 
gpcr_drd2_6luq_protein_autoprepared_prepared

>  <s_lp_Force_Field>  (1) 
S-OPLS

>  <s_lp_Variant>  (1) 
DiffSBDD_55_num_sample_100-11

>  <s_m_source_file>  (1) 
generated__ligand_DiffSBDD_2026-05-06_prepared.sdf

>  <GenAI_Model>  (1) 
DiffSBDD

>  <Protein>  (1) 
generic_title2

$$$$
DiffSBDD_12_num_sample_100
     RDKit          3D

  0  0  0  0  0  0  0  0  0  0999 V3000
M  V30 BEGIN CTAB
M  V30 COUNTS 67 71 0 0 1
M  V30 BEGIN ATOM
M  V30 1 C 6.400715 -0.230486 -15.747991 0
M  V30 2 C 6.928772 1.110996 -15.769025 0
M  V30 3 F 5.567062 -2.037199 -19.340062 0
M  V30 4 O 9.883736 5.369290 -14.828953 0
M  V30 5 C 10.098440 7.704224 -6.239683 0
M  V30 6 C 7.894794 3.076860 -16.997870 0
M  V30 7 C 7.754657 1.570388 -16.963073 0 CFG=2
M  V30 8 F 6.572275 -0.511069 -20.493302 0
M  V30 9 C 12.708311 7.936791 -7.957673 0
M  V30 10 C 5.609169 4.037582 -12.817797 0
M  V30 11 C 6.672868 -1.296769 -19.419606 0
M  V30 12 C 8.407903 4.748988 -10.255839 0 CFG=1
M  V30 13 C 13.716118 8.173866 -9.091715 0
M  V30 14 C 12.888209 8.614369 -10.291950 0
M  V30 15 C 10.371999 8.687777 -7.389533 0
M  V30 16 C 6.875616 -0.483388 -18.150249 0
M  V30 17 C 6.669437 1.961191 -14.753438 0
M  V30 18 C 7.569665 3.841631 -15.945167 0
M  V30 19 O 7.067440 4.569442 -9.891643 0
M  V30 20 O 7.434775 5.337025 -13.591840 0
M  V30 21 C 9.691246 5.969181 -11.964091 0 CFG=1
M  V30 22 C 11.289076 8.130577 -8.507337 0
M  V30 23 C 6.658584 4.211120 -13.707258 0
M  V30 24 F 7.708272 -2.116158 -19.600177 0
M  V30 25 C 9.250844 7.035331 -9.636596 0
M  V30 26 C 11.564037 9.076975 -9.688637 0
M  V30 27 C 8.842645 3.755338 -11.309314 0
M  V30 28 P 9.062359 5.369177 -13.585575 0 CFG=2
M  V30 29 C 8.731383 6.147988 -10.789338 0 CFG=2
M  V30 30 C 10.683404 6.843295 -9.110820 0
M  V30 31 O 5.168812 4.692502 -11.856628 0 CHG=-1
M  V30 32 C 6.383066 -0.985617 -16.862586 0
M  V30 33 C 7.487866 0.726226 -18.196810 0
M  V30 34 N 7.035780 3.326647 -14.762094 0
M  V30 35 C 9.754381 4.484212 -12.196881 0 CFG=1
M  V30 36 H 5.984231 -0.626789 -14.832257 0
M  V30 37 H 9.464124 8.169385 -5.491724 0
M  V30 38 H 9.570646 6.812204 -6.574758 0
M  V30 39 H 11.016805 7.390382 -5.744763 0
M  V30 40 H 8.294655 3.522183 -17.897091 0
M  V30 41 H 8.770188 1.267556 -16.704745 0
M  V30 42 H 12.911735 8.672724 -7.179032 0
M  V30 43 H 12.806025 6.969310 -7.491617 0
M  V30 44 H 5.136424 3.101200 -13.124051 0
M  V30 45 H 9.005809 4.569312 -9.361968 0
M  V30 46 H 14.397956 8.969182 -8.793210 0
M  V30 47 H 14.335794 7.313250 -9.321840 0
M  V30 48 H 13.375875 9.369243 -10.905258 0
M  V30 49 H 12.691066 7.779010 -10.960581 0
M  V30 50 H 10.830520 9.573649 -6.953710 0
M  V30 51 H 9.413848 9.000464 -7.804379 0
M  V30 52 H 6.111923 1.646611 -13.894111 0
M  V30 53 H 7.677748 4.915944 -15.957108 0
M  V30 54 H 6.487456 4.735358 -10.636775 0
M  V30 55 H 10.592587 6.575003 -12.014496 0
M  V30 56 H 9.048669 8.065307 -9.919204 0
M  V30 57 H 8.634835 6.865596 -8.757949 0
M  V30 58 H 10.812844 8.969301 -10.462848 0
M  V30 59 H 11.623199 10.118235 -9.373271 0
M  V30 60 H 9.434673 2.969325 -10.847959 0
M  V30 61 H 8.052202 3.294043 -11.891612 0
M  V30 62 H 7.815384 6.586614 -11.187554 0
M  V30 63 H 10.722852 6.006292 -8.413563 0
M  V30 64 H 11.305433 6.569312 -9.935318 0
M  V30 65 H 5.957757 -1.977901 -16.814299 0
M  V30 66 H 7.846251 1.114291 -19.139010 0
M  V30 67 H 10.684234 3.994921 -12.291665 0
M  V30 END ATOM
M  V30 BEGIN BOND
M  V30 1 1 2 1
M  V30 2 1 7 2
M  V30 3 1 7 6
M  V30 4 1 11 3
M  V30 5 1 11 8
M  V30 6 1 13 9
M  V30 7 1 14 13
M  V30 8 1 15 5
M  V30 9 1 16 11
M  V30 10 2 17 2
M  V30 11 2 18 6
M  V30 12 1 19 12
M  V30 13 1 22 9
M  V30 14 1 22 15
M  V30 15 2 23 10
M  V30 16 1 23 20
M  V30 17 1 24 11
M  V30 18 1 26 14
M  V30 19 1 26 22
M  V30 20 1 27 12
M  V30 21 2 28 4
M  V30 22 1 28 20 CFG=3
M  V30 23 1 28 21
M  V30 24 1 29 12
M  V30 25 1 29 21
M  V30 26 1 29 25
M  V30 27 1 30 22
M  V30 28 1 30 25
M  V30 29 1 31 10
M  V30 30 2 32 1
M  V30 31 1 32 16
M  V30 32 1 33 7
M  V30 33 2 33 16
M  V30 34 1 34 17
M  V30 35 1 34 18
M  V30 36 1 34 23
M  V30 37 1 35 21
M  V30 38 1 35 27
M  V30 39 1 35 28
M  V30 40 1 36 1
M  V30 41 1 37 5
M  V30 42 1 38 5
M  V30 43 1 39 5
M  V30 44 1 40 6
M  V30 45 1 7 41 CFG=1
M  V30 46 1 42 9
M  V30 47 1 43 9
M  V30 48 1 44 10
M  V30 49 1 12 45 CFG=1
M  V30 50 1 46 13
M  V30 51 1 47 13
M  V30 52 1 48 14
M  V30 53 1 49 14
M  V30 54 1 50 15
M  V30 55 1 51 15
M  V30 56 1 52 17
M  V30 57 1 53 18
M  V30 58 1 54 19
M  V30 59 1 21 55 CFG=3
M  V30 60 1 56 25
M  V30 61 1 57 25
M  V30 62 1 58 26
M  V30 63 1 59 26
M  V30 64 1 60 27
M  V30 65 1 61 27
M  V30 66 1 29 62 CFG=3
M  V30 67 1 63 30
M  V30 68 1 64 30
M  V30 69 1 65 32
M  V30 70 1 66 33
M  V30 71 1 35 67 CFG=3
M  V30 END BOND
M  V30 END CTAB
M  END
>  <i_epik_Tot_Q>  (1) 
-1

>  <i_epik_Tot_abs_Q>  (1) 
1

>  <i_i_glide_confnum>  (1) 
628

>  <i_i_glide_lignum>  (1) 
21

>  <i_i_glide_posenum>  (1) 
162

>  <i_i_glide_rotatable_bonds>  (1) 
9

>  <i_lp_mmshare_version>  (1) 
72125

>  <i_m_source_file_index>  (1) 
13

>  <i_f3d_flags>  (1) 
0

>  <num_sample>  (1) 
100

>  <b_lp_Chiralities_Consistent>  (1) 
1

>  <r_epik_Charging_Adjusted_Penalty>  (1) 
6.0913929175536644e-07

>  <r_epik_Ionization_Penalty>  (1) 
7.5242037030438095e-07

>  <r_epik_Ionization_Penalty_Charging>  (1) 
6.0913929175536644e-07

>  <r_epik_Ionization_Penalty_Neutral>  (1) 
1.4328107854901448e-07

>  <r_epik_State_Penalty>  (1) 
-0

>  <r_glide_ring_energy>  (1) 
0.00028320506983089342

>  <r_i_docking_score>  (1) 
-2.9705430186210244

>  <r_i_glide_ecoul>  (1) 
2.3738575733232028

>  <r_i_glide_eff_state_penalty>  (1) 
-0

>  <r_i_glide_einternal>  (1) 
15.771487186558694

>  <r_i_glide_emodel>  (1) 
-11.99003710869221

>  <r_i_glide_emodel_strain>  (1) 
1.0935419682361953

>  <r_i_glide_energy>  (1) 
-16.233902795504825

>  <r_i_glide_erotb>  (1) 
0.47163652173243925

>  <r_i_glide_esite>  (1) 
-0.0027621481532013052

>  <r_i_glide_evdw>  (1) 
-18.607760368828028

>  <r_i_glide_gscore>  (1) 
-2.9705430186210244

>  <r_i_glide_gscore_strain>  (1) 
0

>  <r_i_glide_hbond>  (1) 
0

>  <r_i_glide_ligand_efficiency>  (1) 
-0.084872657674886415

>  <r_i_glide_ligand_efficiency_ln>  (1) 
-0.65210012023752539

>  <r_i_glide_ligand_efficiency_sa>  (1) 
-0.27762409117649001

>  <r_i_glide_lipo>  (1) 
-1.881418673832101

>  <r_i_glide_metal>  (1) 
-0

>  <r_i_glide_rewards>  (1) 
-0.98368933592523999

>  <r_lp_Energy>  (1) 
58.565332999999995

>  <r_lp_tautomer_probability>  (1) 
1

>  <s_epik_Chemistry_Notes>  (1) 
This compound has an imine and may undergo hydrolysis.

>  <s_epik_cmdline>  (1) 
J2VwaWtfcHl0aG9uJywgJy1waHQnLCAnMS4wJywgJy1waCcsICc3LjQnLCAnLXRuJywgJzgnLCAnLW1hJywgJzUwMCcsICctaW1hZScsICc8aW5maWxlLm1hZT4nLCAnLW9tYWUnLCAnPG91dGZpbGUubWFlPic=

>  <s_epik_input>  (1) 
W0NIXTE9W0NIXUMoQyhGKShGKUYpPVtDSF1bQ0BASF0oQzE9MilbQ0hdPVtDSF1OKFtDSF0yKVtDQEBIXShbQ0hdPU8pT1tQQF0zKD1PKVtDQEBIXShbQ0BASF0zNClbQ0gyXVtDQEhdKFtPSF0pW0NASF00W0NIMl1bQ0gyXUM1KFtDSDJdW0NIM10pW0NIMl1bQ0gyXVtDSDJdW0NIMl01

>  <s_glide_docking_method>  (1) 
confgen

>  <s_i_glide_gridfile>  (1) 
gpcr_drd2_6luq_protein_autoprepared_prepared

>  <s_lp_Force_Field>  (1) 
S-OPLS

>  <s_lp_Variant>  (1) 
DiffSBDD_12_num_sample_100-2

>  <s_m_source_file>  (1) 
generated__ligand_DiffSBDD_2026-05-06_prepared.sdf

>  <GenAI_Model>  (1) 
DiffSBDD

>  <Protein>  (1) 
generic_title2

$$$$
DiffSBDD_28_num_sample_100
     RDKit          3D

  0  0  0  0  0  0  0  0  0  0999 V3000
M  V30 BEGIN CTAB
M  V30 COUNTS 42 43 0 0 1
M  V30 BEGIN ATOM
M  V30 1 C 10.611065 7.143146 -5.756504 0
M  V30 2 C 5.758741 6.748085 -13.121892 0
M  V30 3 C 9.871852 6.882685 -7.075417 0
M  V30 4 N 9.328586 5.939750 -9.761730 0
M  V30 5 C 11.767929 9.157157 -6.754291 0
M  V30 6 C 9.087780 5.473495 -10.943815 0
M  V30 7 C 11.427154 8.548053 -8.108995 0
M  V30 8 O 9.546142 5.433025 -13.280453 0
M  V30 9 C 6.914290 4.763169 -12.158261 0
M  V30 10 C 5.413714 6.092119 -10.780650 0
M  V30 11 C 8.038695 4.393082 -11.160551 0
M  V30 12 C 6.820954 7.248773 -14.113261 0
M  V30 13 C 10.910890 7.395313 -10.794994 0
M  V30 14 N 10.756537 6.969303 -12.062454 0 CHG=-1
M  V30 15 N 6.349620 6.118280 -11.915050 0 CFG=2 CHG=1
M  V30 16 C 10.899237 8.635670 -5.602559 0
M  V30 17 C 9.834871 5.972257 -12.214632 0
M  V30 18 C 10.284414 6.969317 -9.633047 0
M  V30 19 C 10.563566 7.511808 -8.285620 0
M  V30 20 H 10.016836 6.773911 -4.921269 0
M  V30 21 H 11.545453 6.580957 -5.740980 0
M  V30 22 H 5.073478 6.052532 -13.608505 0
M  V30 23 H 5.161488 7.608951 -12.816701 0
M  V30 24 H 8.856625 7.279475 -7.022784 0
M  V30 25 H 9.777673 5.805039 -7.212237 0
M  V30 26 H 12.821780 8.969302 -6.559587 0
M  V30 27 H 11.671907 10.240367 -6.809544 0
M  V30 28 H 11.920455 8.994290 -8.951224 0
M  V30 29 H 7.275108 4.676487 -13.180192 0
M  V30 30 H 6.121288 4.015827 -12.102282 0
M  V30 31 H 4.631311 5.369303 -10.964344 0
M  V30 32 H 5.944605 5.769306 -9.891664 0
M  V30 33 H 4.966542 7.067980 -10.595044 0
M  V30 34 H 8.545598 3.485339 -11.491676 0
M  V30 35 H 7.591408 4.169304 -10.192299 0
M  V30 36 H 6.353472 7.796468 -14.931613 0
M  V30 37 H 7.531525 7.919964 -13.629240 0
M  V30 38 H 7.387361 6.433730 -14.561974 0
M  V30 39 H 11.665310 8.192727 -10.685148 0
M  V30 40 H 9.953267 9.175038 -5.605374 0
M  V30 41 H 11.375702 8.843734 -4.644326 0
M  V30 42 H 7.102260 6.726738 -11.614702 0
M  V30 END ATOM
M  V30 BEGIN BOND
M  V30 1 1 3 1
M  V30 2 2 6 4
M  V30 3 1 7 5
M  V30 4 1 11 6
M  V30 5 1 11 9
M  V30 6 1 12 2
M  V30 7 1 14 13
M  V30 8 1 15 2
M  V30 9 1 15 9
M  V30 10 1 15 10
M  V30 11 1 16 1
M  V30 12 1 16 5
M  V30 13 1 17 6
M  V30 14 2 17 8
M  V30 15 1 17 14
M  V30 16 1 18 4
M  V30 17 2 18 13
M  V30 18 1 19 3
M  V30 19 2 19 7
M  V30 20 1 19 18
M  V30 21 1 20 1
M  V30 22 1 21 1
M  V30 23 1 22 2
M  V30 24 1 23 2
M  V30 25 1 24 3
M  V30 26 1 25 3
M  V30 27 1 26 5
M  V30 28 1 27 5
M  V30 29 1 28 7
M  V30 30 1 29 9
M  V30 31 1 30 9
M  V30 32 1 31 10
M  V30 33 1 32 10
M  V30 34 1 33 10
M  V30 35 1 34 11
M  V30 36 1 35 11
M  V30 37 1 36 12
M  V30 38 1 37 12
M  V30 39 1 38 12
M  V30 40 1 39 13
M  V30 41 1 40 16
M  V30 42 1 41 16
M  V30 43 1 15 42 CFG=1
M  V30 END BOND
M  V30 END CTAB
M  END
>  <i_epik_Tot_Q>  (1) 
0

>  <i_epik_Tot_abs_Q>  (1) 
2

>  <i_i_glide_confnum>  (1) 
32

>  <i_i_glide_lignum>  (1) 
50

>  <i_i_glide_posenum>  (1) 
329

>  <i_i_glide_rotatable_bonds>  (1) 
5

>  <i_lp_mmshare_version>  (1) 
72125

>  <i_m_source_file_index>  (1) 
29

>  <i_f3d_flags>  (1) 
0

>  <num_sample>  (1) 
100

>  <b_lp_Chiralities_Consistent>  (1) 
1

>  <r_epik_Charging_Adjusted_Penalty>  (1) 
1.2889852773217638

>  <r_epik_Ionization_Penalty>  (1) 
1.2889869126975093

>  <r_epik_Ionization_Penalty_Charging>  (1) 
0.026956894772998535

>  <r_epik_Ionization_Penalty_Neutral>  (1) 
1.2620300179245107

>  <r_epik_State_Penalty>  (1) 
1.2620283825487653

>  <r_glide_ring_energy>  (1) 
0

>  <r_i_docking_score>  (1) 
-2.9591548578913942

>  <r_i_glide_ecoul>  (1) 
0.26358298052189433

>  <r_i_glide_eff_state_penalty>  (1) 
1.2620283825487653

>  <r_i_glide_einternal>  (1) 
8.3456309056365257

>  <r_i_glide_emodel>  (1) 
-32.77585527394308

>  <r_i_glide_emodel_strain>  (1) 
0.18711644609823708

>  <r_i_glide_energy>  (1) 
-26.987225545717344

>  <r_i_glide_erotb>  (1) 
1.0375715866235848

>  <r_i_glide_esite>  (1) 
-0.074209096778581951

>  <r_i_glide_evdw>  (1) 
-27.250808526239236

>  <r_i_glide_gscore>  (1) 
-4.2211832404401592

>  <r_i_glide_gscore_strain>  (1) 
0

>  <r_i_glide_hbond>  (1) 
0

>  <r_i_glide_ligand_efficiency>  (1) 
-0.1557449925205997

>  <r_i_glide_ligand_efficiency_ln>  (1) 
-0.75020931329421614

>  <r_i_glide_ligand_efficiency_sa>  (1) 
-0.41559019482215526

>  <r_i_glide_lipo>  (1) 
-1.3345204328696658

>  <r_i_glide_metal>  (1) 
-0

>  <r_i_glide_rewards>  (1) 
-2.5270223181818188

>  <r_lp_Energy>  (1) 
33.776638999999996

>  <s_epik_cmdline>  (1) 
J2VwaWtfcHl0aG9uJywgJy1waHQnLCAnMS4wJywgJy1waCcsICc3LjQnLCAnLXRuJywgJzgnLCAnLW1hJywgJzUwMCcsICctaW1hZScsICc8aW5maWxlLm1hZT4nLCAnLW9tYWUnLCAnPG91dGZpbGUubWFlPic=

>  <s_epik_input>  (1) 
W0NIMl0xW0NIMl1bQ0gyXVtDSDJdW0NIXT1DMWMoW2NIXVtuSF1jMj1PKW5jMltDSDJdW0NIMl1OKFtDSDNdKVtDSDJdW0NIM10=

>  <s_glide_docking_method>  (1) 
confgen

>  <s_i_glide_gridfile>  (1) 
gpcr_drd2_6luq_protein_autoprepared_prepared

>  <s_lp_Force_Field>  (1) 
S-OPLS

>  <s_lp_Variant>  (1) 
DiffSBDD_28_num_sample_100-4

>  <s_m_source_file>  (1) 
generated__ligand_DiffSBDD_2026-05-06_prepared.sdf

>  <GenAI_Model>  (1) 
DiffSBDD

>  <Protein>  (1) 
generic_title2

$$$$
DiffSBDD_49_num_sample_100
     RDKit          3D

  0  0  0  0  0  0  0  0  0  0999 V3000
M  V30 BEGIN CTAB
M  V30 COUNTS 53 56 0 0 1
M  V30 BEGIN ATOM
M  V30 1 N 8.537786 4.627922 -16.339234 0
M  V30 2 C 12.635098 5.494883 -17.282650 0
M  V30 3 C 12.797172 3.167331 -17.996014 0
M  V30 4 C 5.373590 7.161740 -17.222127 0
M  V30 5 C 7.530583 5.351166 -10.895210 0
M  V30 6 S 8.308452 4.844196 -18.987351 0
M  V30 7 C 11.231365 5.387769 -17.249346 0
M  V30 8 C 7.778802 4.754297 -13.387070 0 CFG=1
M  V30 9 C 9.089164 4.046920 -17.547321 0 CFG=1
M  V30 10 C 6.333002 6.665356 -18.312681 0
M  V30 11 C 7.284736 6.041077 -14.101680 0
M  V30 12 C 7.436749 5.199463 -16.570125 0
M  V30 13 C 9.063494 5.303994 -10.719860 0 CFG=2
M  V30 14 O 9.409114 5.418531 -8.324731 0
M  V30 15 C 6.570695 5.848284 -15.466310 0 CFG=2
M  V30 16 C 9.557488 6.147279 -9.525516 0
M  V30 17 C 10.606337 4.168257 -17.589448 0
M  V30 18 C 9.308166 4.774172 -13.165635 0
M  V30 19 C 13.417749 4.385164 -17.655471 0
M  V30 20 C 6.889861 5.276852 -17.971478 0 CFG=2
M  V30 21 C 7.049731 4.462025 -12.060099 0
M  V30 22 N 6.062637 7.171621 -15.913090 0 CHG=1
M  V30 23 C 9.717572 5.736302 -12.040819 0
M  V30 24 C 11.392945 3.058079 -17.963782 0
M  V30 25 H 5.708107 5.202946 -15.302956 0
M  V30 26 H 13.111742 6.428311 -17.021047 0
M  V30 27 H 13.398323 2.316429 -18.281334 0
M  V30 28 H 5.029915 8.169267 -17.454329 0
M  V30 29 H 4.488590 6.525472 -17.167150 0
M  V30 30 H 7.036280 5.051437 -9.969792 0
M  V30 31 H 7.221121 6.377781 -11.091750 0
M  V30 32 H 10.633908 6.237912 -16.960940 0
M  V30 33 H 7.557603 3.901953 -14.029394 0
M  V30 34 H 8.823500 2.988432 -17.573470 0
M  V30 35 H 7.156924 7.369301 -18.429244 0
M  V30 36 H 5.823831 6.634371 -19.276378 0
M  V30 37 H 6.613522 6.578208 -13.429941 0
M  V30 38 H 8.123363 6.719973 -14.248201 0
M  V30 39 H 9.361191 4.268746 -10.540969 0
M  V30 40 H 9.910918 4.621608 -8.397196 0
M  V30 41 H 9.034847 7.099862 -9.457979 0
M  V30 42 H 10.614362 6.392368 -9.624476 0
M  V30 43 H 9.648470 3.769312 -12.912285 0
M  V30 44 H 9.834845 5.038883 -14.081743 0
M  V30 45 H 14.494189 4.467916 -17.679997 0
M  V30 46 H 7.221941 3.416434 -11.812082 0
M  V30 47 H 5.971022 4.559877 -12.186350 0
M  V30 48 H 9.430638 6.759784 -12.284221 0
M  V30 49 H 10.801431 5.747022 -11.955409 0
M  V30 50 H 10.919733 2.122565 -18.223884 0
M  V30 51 H 5.430188 7.526375 -15.209453 0
M  V30 52 H 6.123652 4.513545 -18.094449 0
M  V30 53 H 6.848548 7.803917 -15.974118 0
M  V30 END ATOM
M  V30 BEGIN BOND
M  V30 1 1 7 2
M  V30 2 1 9 1
M  V30 3 1 9 6
M  V30 4 1 10 4
M  V30 5 1 11 8
M  V30 6 2 12 1
M  V30 7 1 13 5
M  V30 8 1 15 11
M  V30 9 1 15 12
M  V30 10 1 16 13
M  V30 11 1 16 14
M  V30 12 2 17 7
M  V30 13 1 17 9
M  V30 14 1 18 8
M  V30 15 2 19 2
M  V30 16 1 19 3
M  V30 17 1 20 6
M  V30 18 1 20 10
M  V30 19 1 20 12
M  V30 20 1 21 5
M  V30 21 1 21 8
M  V30 22 1 22 4
M  V30 23 1 22 15
M  V30 24 1 23 13
M  V30 25 1 23 18
M  V30 26 2 24 3
M  V30 27 1 24 17
M  V30 28 1 15 25 CFG=1
M  V30 29 1 26 2
M  V30 30 1 27 3
M  V30 31 1 28 4
M  V30 32 1 29 4
M  V30 33 1 30 5
M  V30 34 1 31 5
M  V30 35 1 32 7
M  V30 36 1 8 33 CFG=3
M  V30 37 1 9 34 CFG=1
M  V30 38 1 35 10
M  V30 39 1 36 10
M  V30 40 1 37 11
M  V30 41 1 38 11
M  V30 42 1 13 39 CFG=1
M  V30 43 1 40 14
M  V30 44 1 41 16
M  V30 45 1 42 16
M  V30 46 1 43 18
M  V30 47 1 44 18
M  V30 48 1 45 19
M  V30 49 1 46 21
M  V30 50 1 47 21
M  V30 51 1 48 23
M  V30 52 1 49 23
M  V30 53 1 50 24
M  V30 54 1 51 22
M  V30 55 1 20 52 CFG=1
M  V30 56 1 53 22
M  V30 END BOND
M  V30 END CTAB
M  END
>  <i_epik_Tot_Q>  (1) 
1

>  <i_epik_Tot_abs_Q>  (1) 
1

>  <i_i_glide_confnum>  (1) 
34

>  <i_i_glide_lignum>  (1) 
93

>  <i_i_glide_posenum>  (1) 
101

>  <i_i_glide_rotatable_bonds>  (1) 
5

>  <i_lp_mmshare_version>  (1) 
72125

>  <i_m_source_file_index>  (1) 
50

>  <i_f3d_flags>  (1) 
0

>  <num_sample>  (1) 
100

>  <b_lp_Chiralities_Consistent>  (1) 
1

>  <r_epik_Charging_Adjusted_Penalty>  (1) 
1.8117775797116225

>  <r_epik_Ionization_Penalty>  (1) 
0.90588925903239437

>  <r_epik_Ionization_Penalty_Charging>  (1) 
0.90588878985581123

>  <r_epik_Ionization_Penalty_Neutral>  (1) 
4.6917658313918283e-07

>  <r_epik_State_Penalty>  (1) 
0.90588878985581134

>  <r_glide_ring_energy>  (1) 
0.011149821634754045

>  <r_i_docking_score>  (1) 
-2.9510639806794985

>  <r_i_glide_ecoul>  (1) 
0.2371158573599057

>  <r_i_glide_eff_state_penalty>  (1) 
0.90588878985581134

>  <r_i_glide_einternal>  (1) 
1.91742392408805

>  <r_i_glide_emodel>  (1) 
-28.276729607234476

>  <r_i_glide_emodel_strain>  (1) 
0.45208383193739365

>  <r_i_glide_energy>  (1) 
-24.028078865430292

>  <r_i_glide_erotb>  (1) 
0.63659216225735071

>  <r_i_glide_esite>  (1) 
0

>  <r_i_glide_evdw>  (1) 
-24.265194722790199

>  <r_i_glide_gscore>  (1) 
-3.8569527705353099

>  <r_i_glide_gscore_strain>  (1) 
0

>  <r_i_glide_hbond>  (1) 
0

>  <r_i_glide_ligand_efficiency>  (1) 
-0.1229609991949791

>  <r_i_glide_ligand_efficiency_ln>  (1) 
-0.70632502607888514

>  <r_i_glide_ligand_efficiency_sa>  (1) 
-0.35468089650705642

>  <r_i_glide_lipo>  (1) 
-1.5824843201020589

>  <r_i_glide_metal>  (1) 
-0

>  <r_i_glide_rewards>  (1) 
-1.7333682551550782

>  <r_lp_Energy>  (1) 
30.244025999999998

>  <r_lp_tautomer_probability>  (1) 
0.99998600000000004

>  <s_epik_Chemistry_Notes>  (1) 
This compound has an imine and may undergo hydrolysis. This compound contains an acetal/aminal-like group ( X-CH(R)-Y where X, Y are N, S, or O) that may be acid/base labile, releasing an aldehyde.

>  <s_epik_cmdline>  (1) 
J2VwaWtfcHl0aG9uJywgJy1waHQnLCAnMS4wJywgJy1waCcsICc3LjQnLCAnLXRuJywgJzgnLCAnLW1hJywgJzUwMCcsICctaW1hZScsICc8aW5maWxlLm1hZT4nLCAnLW9tYWUnLCAnPG91dGZpbGUubWFlPic=

>  <s_epik_input>  (1) 
W2NIXTFbY0hdW2NIXVtjSF1bY0hdYzFbQ0BASF0oW05IXTIpU1tDQEBIXShbQ0BIXTIzKVtDSDJdW0NIMl1OPUMzW0NIMl1bQ0BIXTRbQ0gyXVtDSDJdW0NASF0oW0NIMl1bQ0gyXTQpW0NIMl1bT0hd

>  <s_glide_docking_method>  (1) 
confgen

>  <s_i_glide_gridfile>  (1) 
gpcr_drd2_6luq_protein_autoprepared_prepared

>  <s_lp_Force_Field>  (1) 
S-OPLS

>  <s_lp_Variant>  (1) 
DiffSBDD_49_num_sample_100-3

>  <s_m_source_file>  (1) 
generated__ligand_DiffSBDD_2026-05-06_prepared.sdf

>  <GenAI_Model>  (1) 
DiffSBDD

>  <Protein>  (1) 
generic_title2

$$$$
DiffSBDD_64_num_sample_100
     RDKit          3D

  0  0  0  0  0  0  0  0  0  0999 V3000
M  V30 BEGIN CTAB
M  V30 COUNTS 76 80 0 0 1
M  V30 BEGIN ATOM
M  V30 1 N 7.501333 6.820725 -11.891692 0
M  V30 2 C 9.569256 6.221944 -11.078484 0 CFG=1
M  V30 3 C 7.596446 3.236118 -15.300056 0
M  V30 4 C 9.976857 0.354633 -21.373087 0
M  V30 5 C 9.269279 6.784449 -9.693852 0
M  V30 6 C 9.795004 5.798389 -8.710320 0
M  V30 7 C 10.253423 0.419061 -18.115936 0 CFG=1
M  V30 8 O 9.684548 -0.871363 -18.009007 0
M  V30 9 O 9.810412 3.995852 -11.891671 0
M  V30 10 C 8.716175 3.105232 -17.494855 0
M  V30 11 C 8.877352 0.625350 -20.336190 0
M  V30 12 C 6.944965 7.902409 -12.634872 0
M  V30 13 F 9.199369 5.898128 -7.520008 0
M  V30 14 C 11.729395 0.288393 -18.561706 0 CFG=2
M  V30 15 O 9.883072 3.497481 -17.404002 0
M  V30 16 C 9.112497 4.767948 -10.936483 0 CFG=1
M  V30 17 O 7.961677 5.769297 -18.140615 0
M  V30 18 C 7.835824 5.383758 -16.776787 0 CFG=2
M  V30 19 C 7.172465 7.716868 -14.137343 0
M  V30 20 C 5.349773 6.220503 -16.885440 0
M  V30 21 C 9.437563 4.483300 -9.424703 0
M  V30 22 C 6.604097 6.391717 -14.644575 0 CFG=1
M  V30 23 C 7.594807 3.844934 -16.723216 0 CFG=2
M  V30 24 C 7.000284 5.519479 -12.298012 0 CFG=2
M  V30 25 C 6.724632 6.308335 -16.196116 0 CFG=1
M  V30 26 C 6.692166 3.903931 -14.268414 0
M  V30 27 O 12.462508 1.347585 -17.974515 0
M  V30 28 O 11.053698 -0.413187 -20.852810 0
M  V30 29 C 9.390479 1.316953 -19.046760 0 CFG=1
M  V30 30 O 8.914424 6.867844 -12.148135 0
M  V30 31 C 7.598111 4.566232 -11.245930 0
M  V30 32 C 11.994260 0.332461 -20.085461 0
M  V30 33 N 8.365905 2.033727 -18.258530 0
M  V30 34 F 11.077313 6.053305 -8.554608 0
M  V30 35 C 6.979406 1.536452 -18.330833 0
M  V30 36 C 7.252784 5.253066 -13.811197 0 CFG=1
M  V30 37 H 10.634833 6.295488 -11.269261 0
M  V30 38 H 8.611053 3.227226 -14.900005 0
M  V30 39 H 7.305648 2.187254 -15.360793 0
M  V30 40 H 9.540408 -0.212738 -22.194982 0
M  V30 41 H 10.334522 1.284748 -21.816551 0
M  V30 42 H 8.234844 6.569301 -9.533227 0
M  V30 43 H 9.507735 7.833290 -9.518038 0
M  V30 44 H 10.250963 0.811768 -17.097709 0
M  V30 45 H 8.832998 -0.797841 -17.604761 0
M  V30 46 H 10.659783 4.375423 -12.066562 0
M  V30 47 H 8.374505 -0.314006 -20.110185 0
M  V30 48 H 8.128801 1.258069 -20.815004 0
M  V30 49 H 5.884408 7.971722 -12.388448 0
M  V30 50 H 7.434092 8.815995 -12.291129 0
M  V30 51 H 12.144825 -0.630572 -18.148018 0
M  V30 52 H 8.231676 6.673503 -18.177813 0
M  V30 53 H 8.780692 5.622947 -16.284808 0
M  V30 54 H 6.805999 8.568739 -14.709960 0
M  V30 55 H 8.234695 7.696023 -14.295521 0
M  V30 56 H 4.784010 5.369403 -16.544024 0
M  V30 57 H 4.750081 7.102663 -16.656667 0
M  V30 58 H 5.425938 6.157928 -17.970801 0
M  V30 59 H 8.529372 4.169389 -8.915260 0
M  V30 60 H 10.200207 3.726359 -9.251559 0
M  V30 61 H 5.539588 6.406466 -14.401343 0
M  V30 62 H 6.634842 3.695167 -17.199810 0
M  V30 63 H 5.919168 5.523040 -12.146216 0
M  V30 64 H 7.034837 7.300880 -16.505027 0
M  V30 65 H 6.587540 3.214786 -13.433968 0
M  V30 66 H 5.687954 4.042908 -14.648726 0
M  V30 67 H 11.993080 2.158131 -18.112909 0
M  V30 68 H 10.037699 2.110320 -19.425200 0
M  V30 69 H 7.380308 3.534998 -11.494072 0
M  V30 70 H 7.021280 4.750200 -10.338558 0
M  V30 71 H 12.979791 -0.095623 -20.271856 0
M  V30 72 H 12.058901 1.361097 -20.446803 0
M  V30 73 H 6.489681 1.510533 -17.357931 0
M  V30 74 H 6.383873 2.157874 -19.000226 0
M  V30 75 H 6.914654 0.510368 -18.684349 0
M  V30 76 H 8.332153 5.259260 -13.967620 0
M  V30 END ATOM
M  V30 BEGIN BOND
M  V30 1 1 5 2
M  V30 2 1 6 5
M  V30 3 1 8 7
M  V30 4 1 11 4
M  V30 5 1 12 1
M  V30 6 1 13 6
M  V30 7 1 14 7
M  V30 8 2 15 10
M  V30 9 1 16 2
M  V30 10 1 16 9 CFG=3
M  V30 11 1 18 17
M  V30 12 1 19 12
M  V30 13 1 21 6
M  V30 14 1 21 16
M  V30 15 1 22 19
M  V30 16 1 23 3
M  V30 17 1 23 10
M  V30 18 1 23 18
M  V30 19 1 24 1
M  V30 20 1 25 18
M  V30 21 1 25 20
M  V30 22 1 25 22
M  V30 23 1 26 3
M  V30 24 1 27 14
M  V30 25 1 28 4
M  V30 26 1 29 7
M  V30 27 1 29 11
M  V30 28 1 30 1
M  V30 29 1 30 2
M  V30 30 1 31 16
M  V30 31 1 31 24
M  V30 32 1 32 14
M  V30 33 1 32 28
M  V30 34 1 33 10
M  V30 35 1 33 29
M  V30 36 1 34 6
M  V30 37 1 35 33
M  V30 38 1 36 22
M  V30 39 1 36 24
M  V30 40 1 36 26
M  V30 41 1 2 37 CFG=3
M  V30 42 1 38 3
M  V30 43 1 39 3
M  V30 44 1 40 4
M  V30 45 1 41 4
M  V30 46 1 42 5
M  V30 47 1 43 5
M  V30 48 1 7 44 CFG=1
M  V30 49 1 45 8
M  V30 50 1 46 9
M  V30 51 1 47 11
M  V30 52 1 48 11
M  V30 53 1 49 12
M  V30 54 1 50 12
M  V30 55 1 14 51 CFG=1
M  V30 56 1 52 17
M  V30 57 1 18 53 CFG=1
M  V30 58 1 54 19
M  V30 59 1 55 19
M  V30 60 1 56 20
M  V30 61 1 57 20
M  V30 62 1 58 20
M  V30 63 1 59 21
M  V30 64 1 60 21
M  V30 65 1 22 61 CFG=3
M  V30 66 1 23 62 CFG=3
M  V30 67 1 24 63 CFG=3
M  V30 68 1 25 64 CFG=3
M  V30 69 1 65 26
M  V30 70 1 66 26
M  V30 71 1 67 27
M  V30 72 1 29 68 CFG=3
M  V30 73 1 69 31
M  V30 74 1 70 31
M  V30 75 1 71 32
M  V30 76 1 72 32
M  V30 77 1 73 35
M  V30 78 1 74 35
M  V30 79 1 75 35
M  V30 80 1 36 76 CFG=1
M  V30 END BOND
M  V30 END CTAB
M  END
>  <i_epik_Tot_Q>  (1) 
0

>  <i_epik_Tot_abs_Q>  (1) 
0

>  <i_i_glide_confnum>  (1) 
32

>  <i_i_glide_lignum>  (1) 
127

>  <i_i_glide_posenum>  (1) 
362

>  <i_i_glide_rotatable_bonds>  (1) 
7

>  <i_lp_mmshare_version>  (1) 
72125

>  <i_m_source_file_index>  (1) 
65

>  <i_f3d_flags>  (1) 
0

>  <num_sample>  (1) 
100

>  <b_lp_Chiralities_Consistent>  (1) 
1

>  <r_epik_Charging_Adjusted_Penalty>  (1) 
0.0074276549920260261

>  <r_epik_Ionization_Penalty>  (1) 
0.0074281302473017232

>  <r_epik_Ionization_Penalty_Charging>  (1) 
0

>  <r_epik_Ionization_Penalty_Neutral>  (1) 
0.0074281302473017232

>  <r_epik_State_Penalty>  (1) 
0.0074276549920260261

>  <r_glide_ring_energy>  (1) 
0.29451346755013963

>  <r_i_docking_score>  (1) 
-2.942854936561877

>  <r_i_glide_ecoul>  (1) 
-0.38347788925110404

>  <r_i_glide_eff_state_penalty>  (1) 
0.0074276549920260261

>  <r_i_glide_einternal>  (1) 
1.3175016989723716

>  <r_i_glide_emodel>  (1) 
-4.0939209779642223

>  <r_i_glide_emodel_strain>  (1) 
1.383199291152124

>  <r_i_glide_energy>  (1) 
-3.3894510992392459

>  <r_i_glide_erotb>  (1) 
0.22910757355035372

>  <r_i_glide_esite>  (1) 
-0.18326536449646935

>  <r_i_glide_evdw>  (1) 
-3.005973209988142

>  <r_i_glide_gscore>  (1) 
-2.9502825915539033

>  <r_i_glide_gscore_strain>  (1) 
0

>  <r_i_glide_hbond>  (1) 
-0.13915961706968633

>  <r_i_glide_ligand_efficiency>  (1) 
-0.081745970460052136

>  <r_i_glide_ligand_efficiency_ln>  (1) 
-0.64205144040555306

>  <r_i_glide_ligand_efficiency_sa>  (1) 
-0.26991924734938144

>  <r_i_glide_lipo>  (1) 
-1.6641222163114757

>  <r_i_glide_metal>  (1) 
-0

>  <r_i_glide_rewards>  (1) 
-0.98502262333955293

>  <r_lp_Energy>  (1) 
55.332492999999999

>  <s_epik_Chemistry_Notes>  (1) 
This compound has a N-S or N-O group and may undergo hydrolysis at high or low pH.

>  <s_epik_cmdline>  (1) 
J2VwaWtfcHl0aG9uJywgJy1waHQnLCAnMS4wJywgJy1waCcsICc3LjQnLCAnLXRuJywgJzgnLCAnLW1hJywgJzUwMCcsICctaW1hZScsICc8aW5maWxlLm1hZT4nLCAnLW9tYWUnLCAnPG91dGZpbGUubWFlPic=

>  <s_epik_input>  (1) 
RkMoRikoW0NIMl0xKVtDSDJdW0NAQEhdKFtDQEBdMTJbT0hdKU9OM1tDQEhdKFtDSDJdMilbQ0BASF00W0NAQEhdKFtDSDJdW0NIMl0zKVtDQEhdKFtDSDNdKVtDQEhdKFtPSF0pW0NASF0oW0NIMl1bQ0gyXTQpQyg9TylOKFtDSDNdKVtDQEBIXTVbQ0gyXVtDSDJdT1tDSDJdW0NAQEhdKFtPSF0pW0NAQEhdNVtPSF0=

>  <s_glide_docking_method>  (1) 
confgen

>  <s_i_glide_gridfile>  (1) 
gpcr_drd2_6luq_protein_autoprepared_prepared

>  <s_lp_Force_Field>  (1) 
S-OPLS

>  <s_lp_Variant>  (1) 
DiffSBDD_64_num_sample_100-1

>  <s_m_source_file>  (1) 
generated__ligand_DiffSBDD_2026-05-06_prepared.sdf

>  <GenAI_Model>  (1) 
DiffSBDD

>  <Protein>  (1) 
generic_title2

$$$$
DiffSBDD_85_num_sample_100
     RDKit          3D

  0  0  0  0  0  0  0  0  0  0999 V3000
M  V30 BEGIN CTAB
M  V30 COUNTS 86 88 0 0 1
M  V30 BEGIN ATOM
M  V30 1 O 12.235335 10.497414 -5.891091 0
M  V30 2 C 10.325390 6.744385 -5.440811 0
M  V30 3 C 7.618118 3.108499 -17.286332 0
M  V30 4 C 9.107327 4.982334 -20.703464 0
M  V30 5 C 8.392082 8.004929 -6.354182 0
M  V30 6 C 7.062540 6.109384 -12.460678 0 CFG=1
M  V30 7 C 8.268891 2.740119 -19.726938 0 CFG=2
M  V30 8 C 9.509623 2.449346 -20.893293 0
M  V30 9 C 7.130009 4.677377 -13.052654 0 CFG=2
M  V30 10 C 7.865167 4.610788 -17.002136 0 CFG=2
M  V30 11 C 9.033306 6.973016 -11.208681 0 CFG=2
M  V30 12 C 9.626358 6.518986 -8.634343 0
M  V30 13 C 8.001006 4.912674 -15.482088 0
M  V30 14 C 6.869361 5.556346 -17.721749 0
M  V30 15 C 8.732916 8.485455 -11.285348 0
M  V30 16 C 5.643477 6.684156 -12.299523 0
M  V30 17 C 8.223374 6.009474 -19.963666 0 CFG=1
M  V30 18 O 11.229519 7.367782 -10.289095 0
M  V30 19 C 8.983080 3.657809 -20.477056 0
M  V30 20 O 10.229968 7.470050 -7.857311 0
M  V30 21 C 10.105590 5.425043 -21.679991 0
M  V30 22 C 8.612321 2.482579 -18.276444 0
M  V30 23 C 6.883635 5.560925 -19.279902 0 CFG=2
M  V30 24 C 6.799103 4.566904 -14.564124 0
M  V30 25 C 10.468049 9.147496 -6.249493 0
M  V30 26 C 10.326078 6.716714 -21.988692 0
M  V30 27 C 11.940706 9.134917 -5.983723 0 CFG=2
M  V30 28 C 9.871856 7.774803 -6.493615 0 CFG=2
M  V30 29 C 12.147848 8.315181 -4.692396 0
M  V30 30 C 5.727515 6.450043 -19.780931 0
M  V30 31 O 6.275725 3.827722 -12.313171 0
M  V30 32 C 11.765417 6.848173 -5.028518 0
M  V30 33 O 8.828262 5.676887 -8.228985 0
M  V30 34 N 7.789582 6.169738 -11.162403 0 CHG=1
M  V30 35 C 10.058766 6.573974 -10.117337 0 CFG=2
M  V30 36 O 9.016689 6.794729 -19.103102 0
M  V30 37 H 11.785999 10.860740 -5.143604 0
M  V30 38 H 10.081134 5.769204 -5.816723 0
M  V30 39 H 9.833095 6.829942 -4.493785 0
M  V30 40 H 7.707789 2.543635 -16.358998 0
M  V30 41 H 6.602189 2.936434 -17.634324 0
M  V30 42 H 8.130661 8.569486 -5.491666 0
M  V30 43 H 8.059358 8.659331 -7.135711 0
M  V30 44 H 7.842363 7.067599 -6.291468 0
M  V30 45 H 7.565015 6.760556 -13.178080 0
M  V30 46 H 7.276856 2.415015 -20.031359 0
M  V30 47 H 10.471940 2.110617 -20.519385 0
M  V30 48 H 9.203650 2.013312 -21.843773 0
M  V30 49 H 8.135557 4.279106 -12.913448 0
M  V30 50 H 8.852476 4.846291 -17.397414 0
M  V30 51 H 9.508763 6.699989 -12.152032 0
M  V30 52 H 8.261097 5.964283 -15.353783 0
M  V30 53 H 8.869684 4.355862 -15.127771 0
M  V30 54 H 5.859023 5.327911 -17.382858 0
M  V30 55 H 7.037165 6.576872 -17.377695 0
M  V30 56 H 9.530847 8.969784 -11.840464 0
M  V30 57 H 7.810985 8.711546 -11.820016 0
M  V30 58 H 8.648396 8.954481 -10.303346 0
M  V30 59 H 5.112542 6.721686 -13.250623 0
M  V30 60 H 5.045823 6.104599 -11.594836 0
M  V30 61 H 5.682630 7.707216 -11.919227 0
M  V30 62 H 7.924845 6.697651 -20.753640 0
M  V30 63 H 11.494314 7.332150 -11.194038 0
M  V30 64 H 10.699151 4.675085 -22.180635 0
M  V30 65 H 9.634128 2.805401 -18.069948 0
M  V30 66 H 8.607642 1.399034 -18.142190 0
M  V30 67 H 6.592459 4.576736 -19.631546 0
M  V30 68 H 6.488288 3.543638 -14.777363 0
M  V30 69 H 5.940743 5.185394 -14.814537 0
M  V30 70 H 10.013377 9.635691 -5.398892 0
M  V30 71 H 10.211747 9.760011 -7.091322 0
M  V30 72 H 11.075443 6.990707 -22.717709 0
M  V30 73 H 9.767954 7.512018 -21.522115 0
M  V30 74 H 12.486004 8.722510 -6.833169 0
M  V30 75 H 13.158543 8.377331 -4.290937 0
M  V30 76 H 11.516806 8.700527 -3.887944 0
M  V30 77 H 5.884413 7.494727 -19.508590 0
M  V30 78 H 5.631957 6.400922 -20.866410 0
M  V30 79 H 4.768040 6.136681 -19.368282 0
M  V30 80 H 5.376943 4.066044 -12.480418 0
M  V30 81 H 12.234752 6.442882 -5.914255 0
M  V30 82 H 11.984436 6.183334 -4.190600 0
M  V30 83 H 7.964440 5.225556 -10.844276 0
M  V30 84 H 10.234748 5.527313 -10.349389 0
M  V30 85 H 9.378981 6.225754 -18.440465 0
M  V30 86 H 7.217812 6.654528 -10.460370 0
M  V30 END ATOM
M  V30 BEGIN BOND
M  V30 1 1 8 7
M  V30 2 1 9 6
M  V30 3 1 10 3
M  V30 4 1 13 10
M  V30 5 1 14 10
M  V30 6 1 15 11
M  V30 7 1 16 6
M  V30 8 1 17 4
M  V30 9 2 19 4
M  V30 10 1 19 7
M  V30 11 1 19 8
M  V30 12 1 20 12
M  V30 13 1 21 4
M  V30 14 1 22 3
M  V30 15 1 22 7
M  V30 16 1 23 14
M  V30 17 1 23 17
M  V30 18 1 24 9
M  V30 19 1 24 13
M  V30 20 2 26 21
M  V30 21 1 27 1
M  V30 22 1 27 25
M  V30 23 1 28 2
M  V30 24 1 28 5
M  V30 25 1 28 20 CFG=3
M  V30 26 1 28 25
M  V30 27 1 29 27
M  V30 28 1 30 23
M  V30 29 1 31 9
M  V30 30 1 32 2
M  V30 31 1 32 29
M  V30 32 2 33 12
M  V30 33 1 34 6
M  V30 34 1 34 11
M  V30 35 1 35 11
M  V30 36 1 35 12
M  V30 37 1 35 18
M  V30 38 1 36 17
M  V30 39 1 37 1
M  V30 40 1 38 2
M  V30 41 1 39 2
M  V30 42 1 40 3
M  V30 43 1 41 3
M  V30 44 1 42 5
M  V30 45 1 43 5
M  V30 46 1 44 5
M  V30 47 1 6 45 CFG=3
M  V30 48 1 7 46 CFG=3
M  V30 49 1 47 8
M  V30 50 1 48 8
M  V30 51 1 9 49 CFG=3
M  V30 52 1 10 50 CFG=3
M  V30 53 1 11 51 CFG=3
M  V30 54 1 52 13
M  V30 55 1 53 13
M  V30 56 1 54 14
M  V30 57 1 55 14
M  V30 58 1 56 15
M  V30 59 1 57 15
M  V30 60 1 58 15
M  V30 61 1 59 16
M  V30 62 1 60 16
M  V30 63 1 61 16
M  V30 64 1 17 62 CFG=3
M  V30 65 1 63 18
M  V30 66 1 64 21
M  V30 67 1 65 22
M  V30 68 1 66 22
M  V30 69 1 23 67 CFG=3
M  V30 70 1 68 24
M  V30 71 1 69 24
M  V30 72 1 70 25
M  V30 73 1 71 25
M  V30 74 1 72 26
M  V30 75 1 73 26
M  V30 76 1 27 74 CFG=3
M  V30 77 1 75 29
M  V30 78 1 76 29
M  V30 79 1 77 30
M  V30 80 1 78 30
M  V30 81 1 79 30
M  V30 82 1 80 31
M  V30 83 1 81 32
M  V30 84 1 82 32
M  V30 85 1 83 34
M  V30 86 1 35 84 CFG=3
M  V30 87 1 85 36
M  V30 88 1 86 34
M  V30 END BOND
M  V30 END CTAB
M  END
>  <i_epik_Tot_Q>  (1) 
1

>  <i_epik_Tot_abs_Q>  (1) 
1

>  <i_i_glide_confnum>  (1) 
387

>  <i_i_glide_lignum>  (1) 
175

>  <i_i_glide_posenum>  (1) 
196

>  <i_i_glide_rotatable_bonds>  (1) 
15

>  <i_lp_mmshare_version>  (1) 
72125

>  <i_m_source_file_index>  (1) 
86

>  <i_f3d_flags>  (1) 
0

>  <num_sample>  (1) 
100

>  <b_lp_Chiralities_Consistent>  (1) 
1

>  <r_epik_Charging_Adjusted_Penalty>  (1) 
0.062696987853435748

>  <r_epik_Ionization_Penalty>  (1) 
0.034019236300638377

>  <r_epik_Ionization_Penalty_Charging>  (1) 
0.03134849392671793

>  <r_epik_Ionization_Penalty_Neutral>  (1) 
0.0026707423739204469

>  <r_epik_State_Penalty>  (1) 
0.031348493926717819

>  <r_glide_ring_energy>  (1) 
0

>  <r_i_docking_score>  (1) 
-2.9425901852609693

>  <r_i_glide_ecoul>  (1) 
-5.418105969201835

>  <r_i_glide_eff_state_penalty>  (1) 
0.031348493926717819

>  <r_i_glide_einternal>  (1) 
13.121696213683929

>  <r_i_glide_emodel>  (1) 
-7.2151317154525909

>  <r_i_glide_emodel_strain>  (1) 
2.1885943067319289

>  <r_i_glide_energy>  (1) 
-10.983426121638946

>  <r_i_glide_erotb>  (1) 
0.87027123501495496

>  <r_i_glide_esite>  (1) 
-0.1800010244235479

>  <r_i_glide_evdw>  (1) 
-5.5653201524371108

>  <r_i_glide_gscore>  (1) 
-2.973938679187687

>  <r_i_glide_gscore_strain>  (1) 
0

>  <r_i_glide_hbond>  (1) 
-0.20000000000000001

>  <r_i_glide_ligand_efficiency>  (1) 
-0.081738616257249153

>  <r_i_glide_ligand_efficiency_ln>  (1) 
-0.64199367882444858

>  <r_i_glide_ligand_efficiency_sa>  (1) 
-0.26989496430675236

>  <r_i_glide_lipo>  (1) 
-1.8876448994181259

>  <r_i_glide_metal>  (1) 
-0

>  <r_i_glide_rewards>  (1) 
-0.48558208735883762

>  <r_lp_Energy>  (1) 
44.733196

>  <s_epik_Chemistry_Notes>  (1) 
This compound has an ester and may undergo hydrolysis at high or low pH.

>  <s_epik_cmdline>  (1) 
J2VwaWtfcHl0aG9uJywgJy1waHQnLCAnMS4wJywgJy1waCcsICc3LjQnLCAnLXRuJywgJzgnLCAnLW1hJywgJzUwMCcsICctaW1hZScsICc8aW5maWxlLm1hZT4nLCAnLW9tYWUnLCAnPG91dGZpbGUubWFlPic=

>  <s_epik_input>  (1) 
W09IXVtDQEhdKFtDSDJdMSlbQ0gyXVtDSDJdW0NIMl1bQ0BdMShbQ0gzXSlPQyg9TylbQ0BIXShbT0hdKVtDQEhdKFtDSDNdKVtOSF1bQ0BIXShbQ0gzXSlbQ0BASF0oW09IXSlbQ0gyXVtDSDJdW0NAQEhdKFtDSDJdW0NIMl0yKVtDSDJdW0NAQEhdKFtDSDNdKVtDQEBIXShbT0hdKS9DKD1DKFxbQ0hdMjMpW0NIMl0zKVtDSF09W0NIMl0=

>  <s_glide_docking_method>  (1) 
confgen

>  <s_i_glide_gridfile>  (1) 
gpcr_drd2_6luq_protein_autoprepared_prepared

>  <s_lp_Force_Field>  (1) 
S-OPLS

>  <s_lp_Variant>  (1) 
DiffSBDD_85_num_sample_100-2

>  <s_m_source_file>  (1) 
generated__ligand_DiffSBDD_2026-05-06_prepared.sdf

>  <GenAI_Model>  (1) 
DiffSBDD

>  <Protein>  (1) 
generic_title2

$$$$
DiffSBDD_59_num_sample_100
     RDKit          3D

  0  0  0  0  0  0  0  0  0  0999 V3000
M  V30 BEGIN CTAB
M  V30 COUNTS 73 76 0 0 1
M  V30 BEGIN ATOM
M  V30 1 C 5.394474 4.781446 -12.303731 0
M  V30 2 N 8.175019 1.652230 -18.402924 0
M  V30 3 C 9.473852 2.327746 -18.240829 0
M  V30 4 C 7.681878 1.031469 -17.152833 0 CFG=1
M  V30 5 C 8.380984 6.293975 -12.313908 0
M  V30 6 C 6.829392 4.228978 -12.216196 0 CFG=2
M  V30 7 C 12.153660 7.965547 -3.318664 0
M  V30 8 C 10.324576 7.784969 -6.196272 0
M  V30 9 C 8.255819 4.986426 -10.251418 0
M  V30 10 C 11.345118 8.645483 -5.738856 0
M  V30 11 O 6.234486 1.476025 -12.693239 0
M  V30 12 O 12.896150 9.043573 -3.899814 0
M  V30 13 C 12.188414 9.226759 -6.694954 0
M  V30 14 C 9.194402 5.837247 -9.645264 0
M  V30 15 C 10.279813 2.392000 -19.546453 0
M  V30 16 C 7.844376 5.197644 -11.583468 0
M  V30 17 C 10.929966 8.068568 -8.416563 0
M  V30 18 C 9.329322 7.145333 -11.703167 0
M  V30 19 N 10.118056 7.495598 -7.501188 0
M  V30 20 C 7.207851 2.548985 -19.057578 0
M  V30 21 N 6.955427 1.420995 -14.820859 0
M  V30 22 C 7.946688 6.572225 -13.744828 0
M  V30 23 C 6.359671 0.255646 -17.382544 0
M  V30 24 O 8.631773 0.028734 -16.841109 0
M  V30 25 N 10.696263 7.817343 -9.795008 0
M  V30 26 C 6.793206 2.029679 -13.633714 0
M  V30 27 C 9.736846 6.932431 -10.366129 0
M  V30 28 C 9.812581 3.471153 -20.499988 0
M  V30 29 C 11.978111 8.933264 -8.055144 0
M  V30 30 C 7.342228 3.470542 -13.478956 0
M  V30 31 C 6.131303 3.033372 -21.312001 0
M  V30 32 C 11.516862 8.936870 -4.280327 0 CFG=2
M  V30 33 C 7.427101 2.635004 -20.584653 0 CFG=1
M  V30 34 C 7.624094 2.032327 -15.967076 0
M  V30 35 C 8.555818 3.579541 -20.958291 0
M  V30 36 H 5.041052 5.070906 -11.312421 0
M  V30 37 H 5.283359 5.654386 -12.940722 0
M  V30 38 H 4.706706 4.023416 -12.680085 0
M  V30 39 H 9.345176 3.324511 -17.816548 0
M  V30 40 H 10.097501 1.786451 -17.529818 0
M  V30 41 H 6.722384 3.467798 -11.451717 0
M  V30 42 H 11.970749 8.074311 -2.251878 0
M  V30 43 H 12.430087 6.974657 -3.671395 0
M  V30 44 H 9.652470 7.316434 -5.493647 0
M  V30 45 H 7.848434 4.168676 -9.689580 0
M  V30 46 H 12.985141 9.890287 -6.392183 0
M  V30 47 H 9.499036 5.634029 -8.638220 0
M  V30 48 H 11.319034 2.609047 -19.299392 0
M  V30 49 H 10.284774 1.423450 -20.046857 0
M  V30 50 H 9.737867 7.974535 -12.260719 0
M  V30 51 H 6.193738 2.180519 -18.922968 0
M  V30 52 H 7.217690 3.539911 -18.602522 0
M  V30 53 H 6.605063 0.480547 -14.932943 0
M  V30 54 H 7.938287 7.650697 -13.899961 0
M  V30 55 H 8.630817 6.122955 -14.461206 0
M  V30 56 H 6.945699 6.248726 -13.994147 0
M  V30 57 H 5.493201 0.917327 -17.394790 0
M  V30 58 H 6.376021 -0.293079 -18.324912 0
M  V30 59 H 6.170090 -0.473418 -16.593695 0
M  V30 60 H 8.175667 -0.788610 -16.705811 0
M  V30 61 H 11.205809 8.397249 -10.441383 0
M  V30 62 H 10.556881 4.185761 -20.819546 0
M  V30 63 H 12.610799 9.366938 -8.813542 0
M  V30 64 H 8.427355 3.376531 -13.418178 0
M  V30 65 H 7.122672 4.057711 -14.367314 0
M  V30 66 H 6.272957 3.050855 -22.393077 0
M  V30 67 H 5.328922 2.322892 -21.108923 0
M  V30 68 H 5.784574 4.020116 -21.004075 0
M  V30 69 H 10.906725 9.764828 -3.925896 0
M  V30 70 H 7.697796 1.643855 -20.952412 0
M  V30 71 H 8.630861 2.363189 -15.693480 0
M  V30 72 H 7.054276 2.911724 -16.269902 0
M  V30 73 H 8.309078 4.380805 -21.639533 0
M  V30 END ATOM
M  V30 BEGIN BOND
M  V30 1 1 3 2
M  V30 2 1 4 2
M  V30 3 1 6 1
M  V30 4 2 10 8
M  V30 5 1 12 7
M  V30 6 1 13 10
M  V30 7 2 14 9
M  V30 8 1 15 3
M  V30 9 2 16 5
M  V30 10 1 16 6
M  V30 11 1 16 9
M  V30 12 1 18 5
M  V30 13 1 19 8
M  V30 14 2 19 17
M  V30 15 1 20 2
M  V30 16 1 22 5
M  V30 17 1 23 4
M  V30 18 1 4 24 CFG=1
M  V30 19 1 25 17
M  V30 20 2 26 11
M  V30 21 1 26 21
M  V30 22 1 27 14
M  V30 23 2 27 18
M  V30 24 1 27 25
M  V30 25 1 28 15
M  V30 26 2 29 13
M  V30 27 1 29 17
M  V30 28 1 30 6
M  V30 29 1 30 26
M  V30 30 1 32 7
M  V30 31 1 32 10
M  V30 32 1 32 12
M  V30 33 1 33 20
M  V30 34 1 33 31
M  V30 35 1 34 4
M  V30 36 1 34 21
M  V30 37 2 35 28
M  V30 38 1 35 33
M  V30 39 1 36 1
M  V30 40 1 37 1
M  V30 41 1 38 1
M  V30 42 1 39 3
M  V30 43 1 40 3
M  V30 44 1 6 41 CFG=1
M  V30 45 1 42 7
M  V30 46 1 43 7
M  V30 47 1 44 8
M  V30 48 1 45 9
M  V30 49 1 46 13
M  V30 50 1 47 14
M  V30 51 1 48 15
M  V30 52 1 49 15
M  V30 53 1 50 18
M  V30 54 1 51 20
M  V30 55 1 52 20
M  V30 56 1 53 21
M  V30 57 1 54 22
M  V30 58 1 55 22
M  V30 59 1 56 22
M  V30 60 1 57 23
M  V30 61 1 58 23
M  V30 62 1 59 23
M  V30 63 1 60 24
M  V30 64 1 61 25
M  V30 65 1 62 28
M  V30 66 1 63 29
M  V30 67 1 64 30
M  V30 68 1 65 30
M  V30 69 1 66 31
M  V30 70 1 67 31
M  V30 71 1 68 31
M  V30 72 1 32 69 CFG=1
M  V30 73 1 33 70 CFG=3
M  V30 74 1 71 34
M  V30 75 1 72 34
M  V30 76 1 73 35
M  V30 END BOND
M  V30 END CTAB
M  END
>  <i_epik_Tot_Q>  (1) 
0

>  <i_epik_Tot_abs_Q>  (1) 
0

>  <i_i_glide_confnum>  (1) 
1203

>  <i_i_glide_lignum>  (1) 
117

>  <i_i_glide_posenum>  (1) 
273

>  <i_i_glide_rotatable_bonds>  (1) 
11

>  <i_lp_mmshare_version>  (1) 
72125

>  <i_m_source_file_index>  (1) 
60

>  <i_f3d_flags>  (1) 
0

>  <num_sample>  (1) 
100

>  <b_lp_Chiralities_Consistent>  (1) 
1

>  <r_epik_Charging_Adjusted_Penalty>  (1) 
0.21966515356122782

>  <r_epik_Ionization_Penalty>  (1) 
0.22519441393607559

>  <r_epik_Ionization_Penalty_Charging>  (1) 
0

>  <r_epik_Ionization_Penalty_Neutral>  (1) 
0.22519441393607559

>  <r_epik_State_Penalty>  (1) 
0.21966515356122782

>  <r_glide_ring_energy>  (1) 
0

>  <r_i_docking_score>  (1) 
-2.9408367501102441

>  <r_i_glide_ecoul>  (1) 
0.72607853847936776

>  <r_i_glide_eff_state_penalty>  (1) 
0.21966515356122782

>  <r_i_glide_einternal>  (1) 
16.942135515437656

>  <r_i_glide_emodel>  (1) 
-39.00808082423309

>  <r_i_glide_emodel_strain>  (1) 
0.024346316847484673

>  <r_i_glide_energy>  (1) 
-42.434880058581065

>  <r_i_glide_erotb>  (1) 
0.88460327515387938

>  <r_i_glide_esite>  (1) 
-0.0074438384804264585

>  <r_i_glide_evdw>  (1) 
-43.160958597060436

>  <r_i_glide_gscore>  (1) 
-3.1605019036714719

>  <r_i_glide_gscore_strain>  (1) 
0

>  <r_i_glide_hbond>  (1) 
0

>  <r_i_glide_ligand_efficiency>  (1) 
-0.084023907146006979

>  <r_i_glide_ligand_efficiency_ln>  (1) 
-0.64557893500430141

>  <r_i_glide_ligand_efficiency_sa>  (1) 
-0.27484777191571774

>  <r_i_glide_lipo>  (1) 
-2.2823703158675204

>  <r_i_glide_metal>  (1) 
-0

>  <r_i_glide_rewards>  (1) 
0.29384512460371215

>  <r_lp_Energy>  (1) 
28.775382

>  <r_lp_tautomer_probability>  (1) 
0.99999977220005165

>  <s_epik_cmdline>  (1) 
J2VwaWtfcHl0aG9uJywgJy1waHQnLCAnMS4wJywgJy1waCcsICc3LjQnLCAnLXRuJywgJzgnLCAnLW1hJywgJzUwMCcsICctaW1hZScsICc8aW5maWxlLm1hZT4nLCAnLW9tYWUnLCAnPG91dGZpbGUubWFlPic=

>  <s_epik_input>  (1) 
W0NIMl0xW0NAQEhdKFtDSDNdKVtDSF09W0NIXVtDSDJdW0NIMl1OMVtDQEBdKFtDSDNdKShbT0hdKVtDSDJdW05IXUMoPU8pW0NIMl1bQ0BIXShbQ0gzXSljKGMyW0NIM10pW2NIXVtjSF1jKFtjSF0yKVtOSF1jKFtjSF1bY0hdMyluW2NIXWMzW0NASF00W0NIMl1PNA==

>  <s_glide_docking_method>  (1) 
confgen

>  <s_i_glide_gridfile>  (1) 
gpcr_drd2_6luq_protein_autoprepared_prepared

>  <s_lp_Force_Field>  (1) 
S-OPLS

>  <s_lp_Variant>  (1) 
DiffSBDD_59_num_sample_100-1

>  <s_m_source_file>  (1) 
generated__ligand_DiffSBDD_2026-05-06_prepared.sdf

>  <GenAI_Model>  (1) 
DiffSBDD

>  <Protein>  (1) 
generic_title2

$$$$
DiffSBDD_85_num_sample_100
     RDKit          3D

  0  0  0  0  0  0  0  0  0  0999 V3000
M  V30 BEGIN CTAB
M  V30 COUNTS 86 88 0 0 1
M  V30 BEGIN ATOM
M  V30 1 O 12.797170 9.769289 -4.595427 0
M  V30 2 C 10.295847 6.559787 -5.341850 0
M  V30 3 C 6.482921 1.105743 -15.040375 0
M  V30 4 C 9.690729 0.756922 -17.676114 0
M  V30 5 C 8.579728 7.995248 -6.314369 0
M  V30 6 C 7.968298 5.454015 -11.575751 0 CFG=1
M  V30 7 C 7.640937 -0.483036 -16.655477 0 CFG=2
M  V30 8 C 9.001616 -1.544003 -16.769256 0
M  V30 9 C 9.006421 4.401337 -11.985107 0 CFG=2
M  V30 10 C 7.538895 2.209952 -14.913929 0 CFG=2
M  V30 11 C 9.739033 7.141896 -11.025117 0 CFG=2
M  V30 12 C 10.327275 7.936247 -8.686554 0
M  V30 13 C 7.413394 2.948251 -13.562477 0
M  V30 14 C 7.533260 3.187086 -16.109450 0
M  V30 15 C 9.107886 8.420106 -11.621586 0
M  V30 16 C 6.695421 4.877987 -10.924091 0
M  V30 17 C 9.132532 2.178877 -17.950291 0 CFG=1
M  V30 18 O 12.014566 7.769296 -10.343871 0
M  V30 19 C 8.925487 -0.215441 -17.126246 0
M  V30 20 O 10.614618 7.331899 -7.518287 0
M  V30 21 C 11.072247 0.412983 -18.036297 0
M  V30 22 C 7.148361 -0.249110 -15.239651 0
M  V30 23 C 7.678018 2.575991 -17.539170 0 CFG=2
M  V30 24 C 8.781985 3.503867 -13.188973 0
M  V30 25 C 10.767864 9.060809 -5.717510 0
M  V30 26 C 11.917364 1.253597 -18.663073 0
M  V30 27 C 12.166983 8.732940 -5.264333 0 CFG=2
M  V30 28 C 10.082586 7.781437 -6.253692 0 CFG=2
M  V30 29 C 12.234828 7.543511 -4.289775 0
M  V30 30 C 7.098089 3.573331 -18.559633 0
M  V30 31 O 9.434832 3.769288 -10.823479 0
M  V30 32 C 11.734787 6.287822 -4.990471 0
M  V30 33 O 9.726415 8.969300 -8.802478 0
M  V30 34 N 8.634863 6.284834 -10.564504 0 CHG=1
M  V30 35 C 10.812279 7.187264 -9.888771 0 CFG=2
M  V30 36 O 10.010417 3.184353 -17.474220 0
M  V30 37 H 12.393759 9.861537 -3.745181 0
M  V30 38 H 9.853804 5.738814 -5.876411 0
M  V30 39 H 9.817411 6.599775 -4.374295 0
M  V30 40 H 5.852057 1.061506 -14.149588 0
M  V30 41 H 5.811473 1.294055 -15.871425 0
M  V30 42 H 8.216892 8.569333 -5.491680 0
M  V30 43 H 8.234826 8.582597 -7.145549 0
M  V30 44 H 8.055689 7.042325 -6.291684 0
M  V30 45 H 7.683177 6.059005 -12.436221 0
M  V30 46 H 6.842488 -0.633305 -17.380303 0
M  V30 47 H 9.491400 -1.830935 -15.840628 0
M  V30 48 H 8.940291 -2.332724 -17.513784 0
M  V30 49 H 9.931033 4.861531 -12.305657 0
M  V30 50 H 8.516126 1.727427 -14.923394 0
M  V30 51 H 10.279698 6.731274 -11.868976 0
M  V30 52 H 7.090221 2.272260 -12.769365 0
M  V30 53 H 6.663823 3.732830 -13.647323 0
M  V30 54 H 6.634833 3.790479 -16.046436 0
M  V30 55 H 8.300844 3.941104 -15.964665 0
M  V30 56 H 9.834819 8.969090 -12.198573 0
M  V30 57 H 8.321462 8.178335 -12.338832 0
M  V30 58 H 8.634423 9.082047 -10.900297 0
M  V30 59 H 6.090014 4.301502 -11.617010 0
M  V30 60 H 6.930199 4.228132 -10.080014 0
M  V30 61 H 6.060792 5.679703 -10.543170 0
M  V30 62 H 9.178160 2.240714 -19.035750 0
M  V30 63 H 11.857556 8.685954 -10.513549 0
M  V30 64 H 11.433360 -0.573884 -17.785025 0
M  V30 65 H 7.954890 -0.403369 -14.520845 0
M  V30 66 H 6.409173 -1.021617 -15.024136 0
M  V30 67 H 7.023232 1.719680 -17.648325 0
M  V30 68 H 9.149972 4.083145 -14.034916 0
M  V30 69 H 9.434914 2.645045 -13.070295 0
M  V30 70 H 10.234966 9.515082 -4.895139 0
M  V30 71 H 10.802316 9.825299 -6.488317 0
M  V30 72 H 12.923591 0.945828 -18.901234 0
M  V30 73 H 11.619610 2.249520 -18.945740 0
M  V30 74 H 12.634836 8.569332 -6.228646 0
M  V30 75 H 13.239520 7.388639 -3.891637 0
M  V30 76 H 11.623850 7.743765 -3.408078 0
M  V30 77 H 7.668403 4.502241 -18.583469 0
M  V30 78 H 7.094966 3.153255 -19.564894 0
M  V30 79 H 6.063628 3.828532 -18.327491 0
M  V30 80 H 9.438057 2.827830 -10.966685 0
M  V30 81 H 12.265429 6.031740 -5.904009 0
M  V30 82 H 11.809965 5.436269 -4.319162 0
M  V30 83 H 9.005469 5.621019 -9.899504 0
M  V30 84 H 11.021459 6.190301 -9.495982 0
M  V30 85 H 9.701254 4.021290 -17.785221 0
M  V30 86 H 7.945130 6.879634 -10.085520 0
M  V30 END ATOM
M  V30 BEGIN BOND
M  V30 1 1 8 7
M  V30 2 1 9 6
M  V30 3 1 10 3
M  V30 4 1 13 10
M  V30 5 1 14 10
M  V30 6 1 15 11
M  V30 7 1 16 6
M  V30 8 1 17 4
M  V30 9 2 19 4
M  V30 10 1 19 7
M  V30 11 1 19 8
M  V30 12 1 20 12
M  V30 13 1 21 4
M  V30 14 1 22 3
M  V30 15 1 22 7
M  V30 16 1 23 14
M  V30 17 1 23 17
M  V30 18 1 24 9
M  V30 19 1 24 13
M  V30 20 2 26 21
M  V30 21 1 27 1
M  V30 22 1 27 25
M  V30 23 1 28 2
M  V30 24 1 28 5
M  V30 25 1 28 20 CFG=3
M  V30 26 1 28 25
M  V30 27 1 29 27
M  V30 28 1 30 23
M  V30 29 1 31 9
M  V30 30 1 32 2
M  V30 31 1 32 29
M  V30 32 2 33 12
M  V30 33 1 34 6
M  V30 34 1 34 11
M  V30 35 1 35 11
M  V30 36 1 35 12
M  V30 37 1 35 18
M  V30 38 1 36 17
M  V30 39 1 37 1
M  V30 40 1 38 2
M  V30 41 1 39 2
M  V30 42 1 40 3
M  V30 43 1 41 3
M  V30 44 1 42 5
M  V30 45 1 43 5
M  V30 46 1 44 5
M  V30 47 1 6 45 CFG=3
M  V30 48 1 7 46 CFG=3
M  V30 49 1 47 8
M  V30 50 1 48 8
M  V30 51 1 9 49 CFG=3
M  V30 52 1 10 50 CFG=1
M  V30 53 1 11 51 CFG=3
M  V30 54 1 52 13
M  V30 55 1 53 13
M  V30 56 1 54 14
M  V30 57 1 55 14
M  V30 58 1 56 15
M  V30 59 1 57 15
M  V30 60 1 58 15
M  V30 61 1 59 16
M  V30 62 1 60 16
M  V30 63 1 61 16
M  V30 64 1 17 62 CFG=3
M  V30 65 1 63 18
M  V30 66 1 64 21
M  V30 67 1 65 22
M  V30 68 1 66 22
M  V30 69 1 23 67 CFG=1
M  V30 70 1 68 24
M  V30 71 1 69 24
M  V30 72 1 70 25
M  V30 73 1 71 25
M  V30 74 1 72 26
M  V30 75 1 73 26
M  V30 76 1 27 74 CFG=3
M  V30 77 1 75 29
M  V30 78 1 76 29
M  V30 79 1 77 30
M  V30 80 1 78 30
M  V30 81 1 79 30
M  V30 82 1 80 31
M  V30 83 1 81 32
M  V30 84 1 82 32
M  V30 85 1 83 34
M  V30 86 1 35 84 CFG=1
M  V30 87 1 85 36
M  V30 88 1 86 34
M  V30 END BOND
M  V30 END CTAB
M  END
>  <i_epik_Tot_Q>  (1) 
1

>  <i_epik_Tot_abs_Q>  (1) 
1

>  <i_i_glide_confnum>  (1) 
3140

>  <i_i_glide_lignum>  (1) 
175

>  <i_i_glide_posenum>  (1) 
234

>  <i_i_glide_rotatable_bonds>  (1) 
15

>  <i_lp_mmshare_version>  (1) 
72125

>  <i_m_source_file_index>  (1) 
86

>  <i_f3d_flags>  (1) 
0

>  <num_sample>  (1) 
100

>  <b_lp_Chiralities_Consistent>  (1) 
1

>  <r_epik_Charging_Adjusted_Penalty>  (1) 
0.062696987853435748

>  <r_epik_Ionization_Penalty>  (1) 
0.034019236300638377

>  <r_epik_Ionization_Penalty_Charging>  (1) 
0.03134849392671793

>  <r_epik_Ionization_Penalty_Neutral>  (1) 
0.0026707423739204469

>  <r_epik_State_Penalty>  (1) 
0.031348493926717819

>  <r_glide_ring_energy>  (1) 
0

>  <r_i_docking_score>  (1) 
-2.9347526314826338

>  <r_i_glide_ecoul>  (1) 
-9.5666177999688635

>  <r_i_glide_eff_state_penalty>  (1) 
0.031348493926717819

>  <r_i_glide_einternal>  (1) 
6.1758084338029526

>  <r_i_glide_emodel>  (1) 
-13.553828998197353

>  <r_i_glide_emodel_strain>  (1) 
8.602895977587167

>  <r_i_glide_energy>  (1) 
-20.276608562691592

>  <r_i_glide_erotb>  (1) 
0.87027123501495496

>  <r_i_glide_esite>  (1) 
-0.12987463333381208

>  <r_i_glide_evdw>  (1) 
-10.709990762722731

>  <r_i_glide_gscore>  (1) 
-2.9661011254093514

>  <r_i_glide_gscore_strain>  (1) 
1.1507239943967917

>  <r_i_glide_hbond>  (1) 
-0.4120752294788354

>  <r_i_glide_ligand_efficiency>  (1) 
-0.081520906430073162

>  <r_i_glide_ligand_efficiency_ln>  (1) 
-0.64028373633624858

>  <r_i_glide_ligand_efficiency_sa>  (1) 
-0.26917610229604783

>  <r_i_glide_lipo>  (1) 
-2.0126789125919649

>  <r_i_glide_metal>  (1) 
-0

>  <r_i_glide_rewards>  (1) 
-0.46197537128501931

>  <r_lp_Energy>  (1) 
44.733196

>  <s_epik_Chemistry_Notes>  (1) 
This compound has an ester and may undergo hydrolysis at high or low pH.

>  <s_epik_cmdline>  (1) 
J2VwaWtfcHl0aG9uJywgJy1waHQnLCAnMS4wJywgJy1waCcsICc3LjQnLCAnLXRuJywgJzgnLCAnLW1hJywgJzUwMCcsICctaW1hZScsICc8aW5maWxlLm1hZT4nLCAnLW9tYWUnLCAnPG91dGZpbGUubWFlPic=

>  <s_epik_input>  (1) 
W09IXVtDQEhdKFtDSDJdMSlbQ0gyXVtDSDJdW0NIMl1bQ0BdMShbQ0gzXSlPQyg9TylbQ0BIXShbT0hdKVtDQEhdKFtDSDNdKVtOSF1bQ0BIXShbQ0gzXSlbQ0BASF0oW09IXSlbQ0gyXVtDSDJdW0NAQEhdKFtDSDJdW0NIMl0yKVtDSDJdW0NAQEhdKFtDSDNdKVtDQEBIXShbT0hdKS9DKD1DKFxbQ0hdMjMpW0NIMl0zKVtDSF09W0NIMl0=

>  <s_glide_docking_method>  (1) 
confgen

>  <s_i_glide_gridfile>  (1) 
gpcr_drd2_6luq_protein_autoprepared_prepared

>  <s_lp_Force_Field>  (1) 
S-OPLS

>  <s_lp_Variant>  (1) 
DiffSBDD_85_num_sample_100-2

>  <s_m_source_file>  (1) 
generated__ligand_DiffSBDD_2026-05-06_prepared.sdf

>  <GenAI_Model>  (1) 
DiffSBDD

>  <Protein>  (1) 
generic_title2

$$$$
DiffSBDD_69_num_sample_100
     RDKit          3D

  0  0  0  0  0  0  0  0  0  0999 V3000
M  V30 BEGIN CTAB
M  V30 COUNTS 57 59 0 0 1
M  V30 BEGIN ATOM
M  V30 1 C 8.226845 7.645366 -11.953855 0
M  V30 2 C 6.639185 6.142494 -16.182527 0
M  V30 3 C 10.107258 7.249071 -9.465277 0
M  V30 4 C 8.895287 0.797955 -17.482348 0 CFG=2
M  V30 5 N 7.279281 3.328752 -12.727558 0
M  V30 6 O 7.889751 5.283319 -11.874591 0
M  V30 7 O 9.434621 -1.430652 -16.814919 0
M  V30 8 N 6.830062 1.823915 -14.598885 0
M  V30 9 C 6.233739 1.123318 -13.466577 0 CFG=1
M  V30 10 C 6.265533 5.262298 -18.376172 0
M  V30 11 C 9.152606 6.169411 -10.005227 0
M  V30 12 C 6.074246 6.241431 -17.386111 0
M  V30 13 C 8.624461 -0.693181 -17.367594 0
M  V30 14 C 5.513659 7.960033 -16.242132 0
M  V30 15 O 6.357088 7.158775 -15.359092 0
M  V30 16 C 8.822348 6.300528 -11.510054 0 CFG=2
M  V30 17 O 5.329177 7.339649 -17.552563 0
M  V30 18 C 7.078711 4.140687 -18.078794 0
M  V30 19 F 7.489884 -1.187476 -17.891693 0
M  V30 20 C 7.681642 4.033384 -16.792830 0
M  V30 21 C 7.460224 5.055046 -15.837284 0
M  V30 22 C 10.552586 7.004000 -8.010906 0 CFG=1
M  V30 23 O 9.522147 3.769196 -12.291809 0
M  V30 24 O 11.543177 7.957026 -7.686233 0
M  V30 25 O 6.634844 -0.230699 -13.393730 0
M  V30 26 C 7.915336 1.644572 -16.633494 0 CFG=1
M  V30 27 C 8.341313 4.096509 -12.294231 0
M  V30 28 O 7.732673 0.991476 -15.377875 0
M  V30 29 O 8.753949 1.154399 -18.844497 0
M  V30 30 C 9.416480 7.139573 -6.985852 0
M  V30 31 C 7.425976 2.026943 -13.288342 0 CFG=2
M  V30 32 O 8.479899 2.954677 -16.475017 0
M  V30 33 H 8.884227 8.480455 -11.714975 0
M  V30 34 H 7.259880 7.832462 -11.491688 0
M  V30 35 H 8.072968 7.655439 -13.032993 0
M  V30 36 H 10.987018 7.289280 -10.108704 0
M  V30 37 H 9.630496 8.227400 -9.533929 0
M  V30 38 H 9.920275 0.993413 -17.163529 0
M  V30 39 H 6.361563 3.742144 -12.667045 0
M  V30 40 H 5.248825 1.385509 -13.091647 0
M  V30 41 H 5.800259 5.362615 -19.345526 0
M  V30 42 H 9.603460 5.191642 -9.832165 0
M  V30 43 H 8.234829 6.169284 -9.423524 0
M  V30 44 H 4.539042 8.106638 -15.777323 0
M  V30 45 H 5.972598 8.941230 -16.369779 0
M  V30 46 H 9.750201 6.177447 -12.071970 0
M  V30 47 H 7.240313 3.375729 -18.823223 0
M  V30 48 H 7.911437 4.998859 -14.860948 0
M  V30 49 H 11.003091 6.014039 -7.925673 0
M  V30 50 H 11.158091 8.816854 -7.757103 0
M  V30 51 H 5.881605 -0.805125 -13.491756 0
M  V30 52 H 6.939458 1.666698 -17.125176 0
M  V30 53 H 7.927160 0.812064 -19.151290 0
M  V30 54 H 8.642233 6.388199 -7.143873 0
M  V30 55 H 8.935082 8.116413 -7.045540 0
M  V30 56 H 9.785520 7.010406 -5.967906 0
M  V30 57 H 8.380864 1.534236 -13.099875 0
M  V30 END ATOM
M  V30 BEGIN BOND
M  V30 1 1 9 8
M  V30 2 1 11 3
M  V30 3 2 12 2
M  V30 4 1 12 10
M  V30 5 1 13 4
M  V30 6 2 13 7
M  V30 7 1 15 2
M  V30 8 1 15 14
M  V30 9 1 16 1
M  V30 10 1 16 6
M  V30 11 1 16 11
M  V30 12 1 17 12
M  V30 13 1 17 14
M  V30 14 2 18 10
M  V30 15 1 19 13
M  V30 16 1 20 18
M  V30 17 1 21 2
M  V30 18 2 21 20
M  V30 19 1 22 3
M  V30 20 1 24 22
M  V30 21 1 25 9
M  V30 22 1 26 4
M  V30 23 1 27 5
M  V30 24 1 27 6
M  V30 25 2 27 23
M  V30 26 1 28 8
M  V30 27 1 28 26
M  V30 28 1 29 4
M  V30 29 1 30 22
M  V30 30 1 31 5
M  V30 31 1 31 8
M  V30 32 1 31 9
M  V30 33 1 32 20
M  V30 34 1 32 26
M  V30 35 1 33 1
M  V30 36 1 34 1
M  V30 37 1 35 1
M  V30 38 1 36 3
M  V30 39 1 37 3
M  V30 40 1 4 38 CFG=1
M  V30 41 1 39 5
M  V30 42 1 9 40 CFG=1
M  V30 43 1 41 10
M  V30 44 1 42 11
M  V30 45 1 43 11
M  V30 46 1 44 14
M  V30 47 1 45 14
M  V30 48 1 16 46 CFG=3
M  V30 49 1 47 18
M  V30 50 1 48 21
M  V30 51 1 22 49 CFG=3
M  V30 52 1 50 24
M  V30 53 1 51 25
M  V30 54 1 26 52 CFG=3
M  V30 55 1 53 29
M  V30 56 1 54 30
M  V30 57 1 55 30
M  V30 58 1 56 30
M  V30 59 1 31 57 CFG=3
M  V30 END BOND
M  V30 END CTAB
M  END
>  <i_epik_Tot_Q>  (1) 
0

>  <i_epik_Tot_abs_Q>  (1) 
0

>  <i_i_glide_confnum>  (1) 
726

>  <i_i_glide_lignum>  (1) 
140

>  <i_i_glide_posenum>  (1) 
96

>  <i_i_glide_rotatable_bonds>  (1) 
16

>  <i_lp_mmshare_version>  (1) 
72125

>  <i_m_source_file_index>  (1) 
70

>  <i_f3d_flags>  (1) 
0

>  <num_sample>  (1) 
100

>  <b_lp_Chiralities_Consistent>  (1) 
1

>  <r_epik_Charging_Adjusted_Penalty>  (1) 
0.44341445758704578

>  <r_epik_Ionization_Penalty>  (1) 
0.44344869696236644

>  <r_epik_Ionization_Penalty_Charging>  (1) 
0

>  <r_epik_Ionization_Penalty_Neutral>  (1) 
0.44344869696236644

>  <r_epik_State_Penalty>  (1) 
0.44341445758704578

>  <r_glide_ring_energy>  (1) 
0

>  <r_i_docking_score>  (1) 
-2.932269069109303

>  <r_i_glide_ecoul>  (1) 
-1.1074780643506021

>  <r_i_glide_eff_state_penalty>  (1) 
0.44341445758704578

>  <r_i_glide_einternal>  (1) 
12.75830209024652

>  <r_i_glide_emodel>  (1) 
-43.740216774605727

>  <r_i_glide_emodel_strain>  (1) 
0.58588316722630651

>  <r_i_glide_energy>  (1) 
-41.432955224976411

>  <r_i_glide_erotb>  (1) 
1.0444707678755103

>  <r_i_glide_esite>  (1) 
-0.01314722957274587

>  <r_i_glide_evdw>  (1) 
-40.325477160625809

>  <r_i_glide_gscore>  (1) 
-3.3756835266963487

>  <r_i_glide_gscore_strain>  (1) 
0

>  <r_i_glide_hbond>  (1) 
-0.16

>  <r_i_glide_ligand_efficiency>  (1) 
-0.091633408409665718

>  <r_i_glide_ligand_efficiency_ln>  (1) 
-0.65661497520956402

>  <r_i_glide_ligand_efficiency_sa>  (1) 
-0.29091793780987008

>  <r_i_glide_lipo>  (1) 
-0.80132024223069187

>  <r_i_glide_metal>  (1) 
-0

>  <r_i_glide_rewards>  (1) 
-1.2632912550845403

>  <r_lp_Energy>  (1) 
34.780937000000002

>  <r_lp_tautomer_probability>  (1) 
1

>  <s_epik_Chemistry_Notes>  (1) 
This compound has an ester and may undergo hydrolysis at high or low pH. This compound contains an acetal/aminal-like group ( X-CH(R)-Y where X, Y are N, S, or O) that may be acid/base labile, releasing an aldehyde. This compound has a N-S or N-O group and may undergo hydrolysis at high or low pH.

>  <s_epik_cmdline>  (1) 
J2VwaWtfcHl0aG9uJywgJy1waHQnLCAnMS4wJywgJy1waCcsICc3LjQnLCAnLXRuJywgJzgnLCAnLW1hJywgJzUwMCcsICctaW1hZScsICc8aW5maWxlLm1hZT4nLCAnLW9tYWUnLCAnPG91dGZpbGUubWFlPic=

>  <s_epik_input>  (1) 
W09IXVtDQEBIXShbQ0gzXSlbQ0gyXVtDSDJdW0NASF0oW0NIM10pT0MoPU8pW05IXVtDQEhdMVtDSF0oW09IXSlbTkBAXTFPW0NASF0oW0NAQEhdKEMoPU8pRilbT0hdKU9jKFtjSF0yKVtjSF1bY0hdYyhjMjMpT1tDSDJdTzM=

>  <s_glide_docking_method>  (1) 
confgen

>  <s_i_glide_gridfile>  (1) 
gpcr_drd2_6luq_protein_autoprepared_prepared

>  <s_lp_Force_Field>  (1) 
S-OPLS

>  <s_lp_Variant>  (1) 
DiffSBDD_69_num_sample_100-2

>  <s_m_source_file>  (1) 
generated__ligand_DiffSBDD_2026-05-06_prepared.sdf

>  <GenAI_Model>  (1) 
DiffSBDD

>  <Protein>  (1) 
generic_title2

$$$$
DiffSBDD_56_num_sample_100
     RDKit          3D

  0  0  0  0  0  0  0  0  0  0999 V3000
M  V30 BEGIN CTAB
M  V30 COUNTS 70 76 0 0 1
M  V30 BEGIN ATOM
M  V30 1 O 14.940245 9.733199 -21.965917 0
M  V30 2 C 8.598943 0.339073 -20.008797 0
M  V30 3 C 6.934673 2.219352 -22.604174 0
M  V30 4 C 7.735294 3.024246 -20.299048 0
M  V30 5 C 13.937850 6.802189 -17.226684 0 CFG=2
M  V30 6 C 9.989548 3.196862 -19.157409 0
M  V30 7 F 9.529913 4.104446 -21.248334 0
M  V30 8 C 15.677746 9.077452 -19.747686 0
M  V30 9 C 12.016736 2.555639 -17.726282 0 CFG=1
M  V30 10 C 14.717687 9.029050 -20.790591 0
M  V30 11 C 9.720072 -0.048608 -19.461156 0
M  V30 12 C 12.151080 4.925183 -17.285811 0 CFG=1
M  V30 13 C 13.496555 2.552783 -17.921208 0
M  V30 14 N 12.556246 6.300539 -17.696447 0 CFG=2 CHG=1
M  V30 15 C 6.603708 -0.611016 -21.117463 0
M  V30 16 C 9.271917 3.041665 -20.481951 0 CFG=2
M  V30 17 C 13.353367 7.557196 -19.412414 0
M  V30 18 C 13.962748 9.773711 -23.028875 0
M  V30 19 C 12.561766 8.206895 -21.691404 0
M  V30 20 C 7.502708 0.552146 -20.705884 0
M  V30 21 C 16.939919 9.897115 -19.915368 0
M  V30 22 C 12.165099 6.733223 -19.117165 0
M  V30 23 C 10.601085 4.795079 -17.218387 0
M  V30 24 C 12.745648 8.900532 -22.808727 0
M  V30 25 C 9.913023 4.415411 -18.536354 0
M  V30 26 C 13.539457 8.256030 -20.621623 0
M  V30 27 C 5.714128 2.214464 -21.724722 0
M  V30 28 C 12.705636 3.822020 -18.181730 0 CFG=1
M  V30 29 O 5.436704 -0.661673 -20.314717 0
M  V30 30 C 10.890022 2.119514 -18.580514 0
M  V30 31 C 14.270941 7.601281 -18.426844 0
M  V30 32 C 14.991218 5.714750 -16.934499 0
M  V30 33 C 10.770409 0.749094 -18.772443 0
M  V30 34 C 15.451592 8.354792 -18.554125 0
M  V30 35 C 7.077258 1.935103 -21.119679 0
M  V30 36 H 7.279770 3.182912 -22.973920 0
M  V30 37 H 7.060561 1.391470 -23.298833 0
M  V30 38 H 7.466419 2.862182 -19.253634 0
M  V30 39 H 7.307718 3.994094 -20.557937 0
M  V30 40 H 13.812730 7.460110 -16.365225 0
M  V30 41 H 11.753270 2.422370 -16.691661 0
M  V30 42 H 9.879974 -1.113501 -19.415759 0
M  V30 43 H 12.514263 4.767389 -16.269227 0
M  V30 44 H 13.888103 2.014676 -18.782044 0
M  V30 45 H 14.126421 2.533232 -17.033869 0
M  V30 46 H 7.133846 -1.556120 -20.987726 0
M  V30 47 H 6.338239 -0.555646 -22.172944 0
M  V30 48 H 9.710084 2.258107 -21.096571 0
M  V30 49 H 13.638931 10.804861 -23.171955 0
M  V30 50 H 14.459789 9.455969 -23.941164 0
M  V30 51 H 11.682117 7.596579 -21.557833 0
M  V30 52 H 17.475073 10.010489 -18.972571 0
M  V30 53 H 17.605037 9.417849 -20.633364 0
M  V30 54 H 16.688961 10.889395 -20.292680 0
M  V30 55 H 12.062907 5.933522 -19.846369 0
M  V30 56 H 11.256671 7.336909 -19.105360 0
M  V30 57 H 10.164150 5.729742 -16.864098 0
M  V30 58 H 10.301565 4.070687 -16.460341 0
M  V30 59 H 12.013303 8.862812 -23.602945 0
M  V30 60 H 9.310155 5.191235 -18.987174 0
M  V30 61 H 5.028083 1.393167 -21.882571 0
M  V30 62 H 5.245164 3.173013 -21.510169 0
M  V30 63 H 12.660472 4.035898 -19.244840 0
M  V30 64 H 4.702695 -0.379782 -20.848204 0
M  V30 65 H 15.960955 6.166668 -16.726102 0
M  V30 66 H 14.729112 5.123396 -16.057069 0
M  V30 67 H 15.125873 5.040661 -17.780757 0
M  V30 68 H 11.533826 0.157165 -18.287587 0
M  V30 69 H 16.175363 8.379954 -17.752780 0
M  V30 70 H 11.950946 6.882814 -17.135949 0
M  V30 END ATOM
M  V30 BEGIN BOND
M  V30 1 1 10 1
M  V30 2 1 10 8
M  V30 3 2 11 2
M  V30 4 1 13 9
M  V30 5 1 14 5
M  V30 6 1 14 12
M  V30 7 1 16 4
M  V30 8 1 16 6
M  V30 9 1 16 7
M  V30 10 1 18 1
M  V30 11 2 20 2
M  V30 12 1 20 15
M  V30 13 1 21 8
M  V30 14 1 22 14
M  V30 15 1 22 17
M  V30 16 1 23 12
M  V30 17 1 24 18
M  V30 18 2 24 19
M  V30 19 2 25 6
M  V30 20 1 25 23
M  V30 21 2 26 10
M  V30 22 1 26 17
M  V30 23 1 26 19
M  V30 24 1 27 3
M  V30 25 1 28 9
M  V30 26 1 28 12
M  V30 27 1 28 13
M  V30 28 1 29 15
M  V30 29 1 30 6
M  V30 30 1 30 9
M  V30 31 1 31 5
M  V30 32 2 31 17
M  V30 33 1 32 5
M  V30 34 1 33 11
M  V30 35 2 33 30
M  V30 36 2 34 8
M  V30 37 1 34 31
M  V30 38 1 35 3
M  V30 39 1 35 4
M  V30 40 1 35 20
M  V30 41 1 35 27
M  V30 42 1 36 3
M  V30 43 1 37 3
M  V30 44 1 38 4
M  V30 45 1 39 4
M  V30 46 1 5 40 CFG=1
M  V30 47 1 9 41 CFG=1
M  V30 48 1 42 11
M  V30 49 1 12 43 CFG=1
M  V30 50 1 44 13
M  V30 51 1 45 13
M  V30 52 1 46 15
M  V30 53 1 47 15
M  V30 54 1 16 48 CFG=3
M  V30 55 1 49 18
M  V30 56 1 50 18
M  V30 57 1 51 19
M  V30 58 1 52 21
M  V30 59 1 53 21
M  V30 60 1 54 21
M  V30 61 1 55 22
M  V30 62 1 56 22
M  V30 63 1 57 23
M  V30 64 1 58 23
M  V30 65 1 59 24
M  V30 66 1 60 25
M  V30 67 1 61 27
M  V30 68 1 62 27
M  V30 69 1 28 63 CFG=3
M  V30 70 1 64 29
M  V30 71 1 65 32
M  V30 72 1 66 32
M  V30 73 1 67 32
M  V30 74 1 68 33
M  V30 75 1 69 34
M  V30 76 1 14 70 CFG=1
M  V30 END BOND
M  V30 END CTAB
M  END
>  <i_epik_Tot_Q>  (1) 
1

>  <i_epik_Tot_abs_Q>  (1) 
1

>  <i_i_glide_confnum>  (1) 
8

>  <i_i_glide_lignum>  (1) 
113

>  <i_i_glide_posenum>  (1) 
307

>  <i_i_glide_rotatable_bonds>  (1) 
3

>  <i_lp_mmshare_version>  (1) 
72125

>  <i_m_source_file_index>  (1) 
57

>  <i_f3d_flags>  (1) 
0

>  <num_sample>  (1) 
100

>  <b_lp_Chiralities_Consistent>  (1) 
1

>  <r_epik_Charging_Adjusted_Penalty>  (1) 
0.14231297848205576

>  <r_epik_Ionization_Penalty>  (1) 
0.071157794031890806

>  <r_epik_Ionization_Penalty_Charging>  (1) 
0.071156489241027923

>  <r_epik_Ionization_Penalty_Neutral>  (1) 
1.3047908628845687e-06

>  <r_epik_State_Penalty>  (1) 
0.071156489241027826

>  <r_glide_ring_energy>  (1) 
0

>  <r_i_docking_score>  (1) 
-2.9167561252293162

>  <r_i_glide_ecoul>  (1) 
-3.818265899999842

>  <r_i_glide_eff_state_penalty>  (1) 
0.071156489241027826

>  <r_i_glide_einternal>  (1) 
1.2954497324051144

>  <r_i_glide_emodel>  (1) 
-30.400234066016267

>  <r_i_glide_emodel_strain>  (1) 
0.47244620644022461

>  <r_i_glide_energy>  (1) 
-27.40052809508397

>  <r_i_glide_erotb>  (1) 
0.18105195314905365

>  <r_i_glide_esite>  (1) 
0

>  <r_i_glide_evdw>  (1) 
-23.582262195084127

>  <r_i_glide_gscore>  (1) 
-2.9879126144703441

>  <r_i_glide_gscore_strain>  (1) 
0

>  <r_i_glide_hbond>  (1) 
-0.32000000000000001

>  <r_i_glide_ligand_efficiency>  (1) 
-0.08333588929226618

>  <r_i_glide_ligand_efficiency_ln>  (1) 
-0.64029270340226341

>  <r_i_glide_ligand_efficiency_sa>  (1) 
-0.27259721989353797

>  <r_i_glide_lipo>  (1) 
-0.91048770922884947

>  <r_i_glide_metal>  (1) 
-0

>  <r_i_glide_rewards>  (1) 
-0.18662386363636538

>  <r_lp_Energy>  (1) 
56.449574999999996

>  <s_epik_cmdline>  (1) 
J2VwaWtfcHl0aG9uJywgJy1waHQnLCAnMS4wJywgJy1waCcsICc3LjQnLCAnLXRuJywgJzgnLCAnLW1hJywgJzUwMCcsICctaW1hZScsICc8aW5maWxlLm1hZT4nLCAnLW9tYWUnLCAnPG91dGZpbGUubWFlPic=

>  <s_epik_input>  (1) 
TzFbQ0gyXVtDSF09W0NIXWMoYzEyKWMzYyhbY0hdYzJbQ0gzXSlbQ0BIXShbQ0gzXSlOKFtDSDJdMylbQ0BASF0oW0NIMl1bQ0hdNClbQ0BASF0oW0NIMl01KVtDQEhdNUMoXEM9NFtDQEhdKEYpW0NIMl1DNjdbQ0gyXVtDSDJdNyk9W0NIXVxbQ0hdPUM9QzZbQ0gyXVtPSF0=

>  <s_glide_docking_method>  (1) 
confgen

>  <s_i_glide_gridfile>  (1) 
gpcr_drd2_6luq_protein_autoprepared_prepared

>  <s_lp_Force_Field>  (1) 
S-OPLS

>  <s_lp_Variant>  (1) 
DiffSBDD_56_num_sample_100-2

>  <s_m_source_file>  (1) 
generated__ligand_DiffSBDD_2026-05-06_prepared.sdf

>  <GenAI_Model>  (1) 
DiffSBDD

>  <Protein>  (1) 
generic_title2

$$$$
DiffSBDD_52_num_sample_100
     RDKit          3D

  0  0  0  0  0  0  0  0  0  0999 V3000
M  V30 BEGIN CTAB
M  V30 COUNTS 52 54 0 0 1
M  V30 BEGIN ATOM
M  V30 1 C 7.628174 4.983864 -11.606493 0
M  V30 2 N 6.029968 4.865634 -19.310931 0
M  V30 3 C 8.231463 3.835981 -15.224240 0
M  V30 4 C 6.939682 5.435617 -18.331909 0
M  V30 5 N 6.751618 6.169232 -11.629026 0 CHG=1
M  V30 6 N 8.746927 1.531661 -16.834889 0 CHG=-1
M  V30 7 O 5.034809 3.066596 -20.294786 0
M  V30 8 C 6.239791 6.657924 -17.790900 0 CFG=2
M  V30 9 C 5.434651 8.205633 -19.684598 0
M  V30 10 C 6.009610 3.536683 -19.702379 0
M  V30 11 N 10.108002 -0.002426 -17.882230 0
M  V30 12 C 8.276827 4.595298 -14.036041 0
M  V30 13 C 7.474416 2.641023 -15.277527 0
M  V30 14 C 5.885582 6.526761 -16.293727 0
M  V30 15 C 5.091060 7.010436 -18.778853 0
M  V30 16 N 8.924814 -0.256304 -19.896716 0
M  V30 17 C 4.950592 5.769752 -19.689711 0
M  V30 18 C 6.795055 2.983670 -12.952282 0
M  V30 19 C 8.361139 0.664217 -19.159451 0
M  V30 20 C 7.118527 1.413109 -19.583736 0
M  V30 21 C 9.064198 0.775123 -17.913468 0
M  V30 22 O 7.431709 1.891349 -16.436845 0
M  V30 23 C 7.561571 4.170749 -12.896625 0
M  V30 24 O 10.063495 -0.630672 -19.146428 0
M  V30 25 C 6.756488 2.219146 -14.139229 0
M  V30 26 O 8.352124 3.381284 -19.063235 0 CHG=-1
M  V30 27 N 7.174604 2.789498 -19.409940 0
M  V30 28 O 6.153047 0.813414 -20.073999 0
M  V30 29 C 3.793477 7.366571 -18.026432 0
M  V30 30 H 7.359540 4.362325 -10.751171 0
M  V30 31 H 8.655235 5.313057 -11.443284 0
M  V30 32 H 8.783582 4.162473 -16.094567 0
M  V30 33 H 7.136699 4.749358 -17.510700 0
M  V30 34 H 7.872070 5.740571 -18.811519 0
M  V30 35 H 6.874325 6.722034 -10.776499 0
M  V30 36 H 6.983264 6.743907 -12.425219 0
M  V30 37 H 7.035101 7.369398 -17.837874 0
M  V30 38 H 6.411222 8.088614 -20.155296 0
M  V30 39 H 4.700304 8.325532 -20.481992 0
M  V30 40 H 5.434668 9.137359 -19.121039 0
M  V30 41 H 8.864420 5.500099 -13.999851 0
M  V30 42 H 5.123383 5.769637 -16.122367 0
M  V30 43 H 6.763940 6.241301 -15.718082 0
M  V30 44 H 5.535241 7.468754 -15.873252 0
M  V30 45 H 5.070983 6.012655 -20.746258 0
M  V30 46 H 3.961001 5.337439 -19.598345 0
M  V30 47 H 6.242373 2.654444 -12.084828 0
M  V30 48 H 6.175452 1.309252 -14.176946 0
M  V30 49 H 3.366029 6.504430 -17.516274 0
M  V30 50 H 3.958914 8.142116 -17.280626 0
M  V30 51 H 3.033915 7.769184 -18.690500 0
M  V30 52 H 5.789483 5.875376 -11.692816 0
M  V30 END ATOM
M  V30 BEGIN BOND
M  V30 1 1 4 2
M  V30 2 1 5 1
M  V30 3 1 8 4
M  V30 4 1 10 2
M  V30 5 2 10 7
M  V30 6 2 12 3
M  V30 7 1 13 3
M  V30 8 1 14 8
M  V30 9 1 15 8
M  V30 10 1 15 9
M  V30 11 1 17 2
M  V30 12 1 17 15
M  V30 13 2 19 16
M  V30 14 1 20 19
M  V30 15 1 21 6
M  V30 16 2 21 11
M  V30 17 1 21 19
M  V30 18 1 22 6
M  V30 19 1 22 13
M  V30 20 1 23 1
M  V30 21 1 23 12
M  V30 22 2 23 18
M  V30 23 1 24 11
M  V30 24 1 24 16
M  V30 25 2 25 13
M  V30 26 1 25 18
M  V30 27 1 27 10
M  V30 28 1 27 20
M  V30 29 1 27 26
M  V30 30 2 28 20
M  V30 31 1 29 15
M  V30 32 1 30 1
M  V30 33 1 31 1
M  V30 34 1 32 3
M  V30 35 1 33 4
M  V30 36 1 34 4
M  V30 37 1 35 5
M  V30 38 1 36 5
M  V30 39 1 8 37 CFG=1
M  V30 40 1 38 9
M  V30 41 1 39 9
M  V30 42 1 40 9
M  V30 43 1 41 12
M  V30 44 1 42 14
M  V30 45 1 43 14
M  V30 46 1 44 14
M  V30 47 1 45 17
M  V30 48 1 46 17
M  V30 49 1 47 18
M  V30 50 1 48 25
M  V30 51 1 49 29
M  V30 52 1 50 29
M  V30 53 1 51 29
M  V30 54 1 52 5
M  V30 END BOND
M  V30 END CTAB
M  END
>  <i_epik_Tot_Q>  (1) 
-1

>  <i_epik_Tot_abs_Q>  (1) 
3

>  <i_i_glide_confnum>  (1) 
10

>  <i_i_glide_lignum>  (1) 
97

>  <i_i_glide_posenum>  (1) 
306

>  <i_i_glide_rotatable_bonds>  (1) 
8

>  <i_lp_mmshare_version>  (1) 
72125

>  <i_m_source_file_index>  (1) 
53

>  <i_f3d_flags>  (1) 
0

>  <num_sample>  (1) 
100

>  <b_lp_Chiralities_Consistent>  (1) 
1

>  <r_epik_Charging_Adjusted_Penalty>  (1) 
0.51570556824874214

>  <r_epik_Ionization_Penalty>  (1) 
0.2980209657670958

>  <r_epik_Ionization_Penalty_Charging>  (1) 
0.29800273114257281

>  <r_epik_Ionization_Penalty_Neutral>  (1) 
1.8234624523001942e-05

>  <r_epik_State_Penalty>  (1) 
0.21770283710616928

>  <r_glide_ring_energy>  (1) 
0

>  <r_i_docking_score>  (1) 
-2.9126307395302886

>  <r_i_glide_ecoul>  (1) 
-3.4193390230007932

>  <r_i_glide_eff_state_penalty>  (1) 
0.21770283710616928

>  <r_i_glide_einternal>  (1) 
5.6645169594504452

>  <r_i_glide_emodel>  (1) 
-31.608309883905036

>  <r_i_glide_emodel_strain>  (1) 
2.4396987944656132

>  <r_i_glide_energy>  (1) 
-29.311632547349568

>  <r_i_glide_erotb>  (1) 
0.84444989797040115

>  <r_i_glide_esite>  (1) 
-0.10000000000000001

>  <r_i_glide_evdw>  (1) 
-25.892293524348773

>  <r_i_glide_gscore>  (1) 
-3.1303335766364579

>  <r_i_glide_gscore_strain>  (1) 
0

>  <r_i_glide_hbond>  (1) 
-0.20000000000000001

>  <r_i_glide_ligand_efficiency>  (1) 
-0.10043554274242375

>  <r_i_glide_ligand_efficiency_ln>  (1) 
-0.66691858140951921

>  <r_i_glide_ligand_efficiency_sa>  (1) 
-0.30856980786443861

>  <r_i_glide_lipo>  (1) 
-1.9698493273664779

>  <r_i_glide_metal>  (1) 
-0

>  <r_i_glide_rewards>  (1) 
0.10258138242717685

>  <r_lp_Energy>  (1) 
53.846633999999995

>  <s_epik_cmdline>  (1) 
J2VwaWtfcHl0aG9uJywgJy1waHQnLCAnMS4wJywgJy1waCcsICc3LjQnLCAnLXRuJywgJzgnLCAnLW1hJywgJzUwMCcsICctaW1hZScsICc8aW5maWxlLm1hZT4nLCAnLW9tYWUnLCAnPG91dGZpbGUubWFlPic=

>  <s_epik_input>  (1) 
W05IMl1bQ0gyXWMoW2NIXVtjSF0xKVtjSF1bY0hdYzFPL049YzIvW25IXW9uYzJDKD1PKU4oW09IXSlDKD1PKU4oW0NIMl0zKVtDSDJdW0NASF0oW0NIM10pQzMoW0NIM10pW0NIM10=

>  <s_glide_docking_method>  (1) 
confgen

>  <s_i_glide_gridfile>  (1) 
gpcr_drd2_6luq_protein_autoprepared_prepared

>  <s_lp_Force_Field>  (1) 
S-OPLS

>  <s_lp_Variant>  (1) 
DiffSBDD_52_num_sample_100-1

>  <s_m_source_file>  (1) 
generated__ligand_DiffSBDD_2026-05-06_prepared.sdf

>  <GenAI_Model>  (1) 
DiffSBDD

>  <Protein>  (1) 
generic_title2

$$$$
DiffSBDD_67_num_sample_100
     RDKit          3D

  0  0  0  0  0  0  0  0  0  0999 V3000
M  V30 BEGIN CTAB
M  V30 COUNTS 79 83 0 0 1
M  V30 BEGIN ATOM
M  V30 1 C 9.247873 6.386330 -8.502119 0 CFG=2
M  V30 2 C 10.971933 6.984420 -6.505566 0 CFG=1
M  V30 3 C 11.707465 6.161201 -5.439206 0
M  V30 4 C 11.731714 8.296512 -6.841151 0 CFG=1
M  V30 5 C 8.931567 3.107976 -12.342051 0
M  V30 6 C 9.026817 4.837982 -10.568149 0
M  V30 7 C 7.244212 0.951020 -17.790333 0
M  V30 8 C 8.644147 -0.581828 -16.521113 0
M  V30 9 C 12.366693 8.603387 -9.305332 0 CFG=2
M  V30 10 C 5.196797 -0.221330 -15.719769 0
M  V30 11 C 8.107005 2.059832 -13.111335 0
M  V30 12 C 8.125130 0.854454 -18.883371 0
M  V30 13 C 6.562831 1.817199 -14.928770 0
M  V30 14 O 4.249978 0.169245 -15.001528 0 CHG=-1
M  V30 15 F 10.636361 -1.422872 -17.491671 0
M  V30 16 C 6.879941 4.665497 -13.802735 0
M  V30 17 O 5.105072 -1.027944 -16.673516 0
M  V30 18 C 12.875556 8.282388 -7.891539 0
M  V30 19 C 10.913592 8.159683 -9.506572 0 CFG=2
M  V30 20 C 7.514327 0.230057 -16.601509 0
M  V30 21 C 10.118642 9.125077 -8.731557 0
M  V30 22 N 7.622898 5.230385 -12.645591 0 CFG=2 CHG=1
M  V30 23 C 7.788451 3.868653 -14.763449 0
M  V30 24 N 7.825330 2.425484 -14.501961 0
M  V30 25 C 10.759449 9.368820 -7.283776 0
M  V30 26 C 8.101332 4.212218 -11.648958 0 CFG=1
M  V30 27 C 7.861177 4.368981 -8.253889 0
M  V30 28 C 6.601608 0.349669 -15.399063 0 CFG=2
M  V30 29 O 13.234047 8.169310 -10.291117 0
M  V30 30 C 10.586540 6.778924 -9.073071 0 CFG=1
M  V30 31 C 10.559832 6.147333 -7.718315 0 CFG=2
M  V30 32 O 7.870364 1.550103 -20.030376 0
M  V30 33 C 9.274250 0.046126 -18.786312 0
M  V30 34 C 6.876070 6.367652 -12.049980 0
M  V30 35 C 9.530274 -0.666593 -17.599870 0
M  V30 36 C 8.386711 5.364251 -9.256185 0 CFG=1
M  V30 37 H 8.634644 7.077742 -7.938197 0
M  V30 38 H 10.040292 7.275518 -6.015420 0
M  V30 39 H 12.429978 5.483525 -5.893836 0
M  V30 40 H 12.220159 6.773664 -4.693478 0
M  V30 41 H 10.994318 5.565275 -4.873576 0
M  V30 42 H 12.160916 8.654751 -5.905481 0
M  V30 43 H 9.437267 2.569451 -11.558286 0
M  V30 44 H 9.742684 3.527928 -12.937066 0
M  V30 45 H 9.829032 4.165906 -10.263959 0
M  V30 46 H 9.525052 5.650759 -11.095305 0
M  V30 47 H 6.367045 1.577852 -17.858359 0
M  V30 48 H 8.852911 -1.128765 -15.613515 0
M  V30 49 H 8.519365 1.419517 -20.704242 0
M  V30 50 H 12.391798 9.684230 -9.450471 0
M  V30 51 H 7.187423 1.862725 -12.559478 0
M  V30 52 H 8.647694 1.112214 -13.130432 0
M  V30 53 H 6.234864 2.384235 -15.792368 0
M  V30 54 H 5.829661 1.946658 -14.139322 0
M  V30 55 H 6.012163 4.099517 -13.464238 0
M  V30 56 H 6.479340 5.491936 -14.390886 0
M  V30 57 H 13.618793 9.028612 -7.616597 0
M  V30 58 H 13.433465 7.369349 -7.891638 0
M  V30 59 H 10.641841 8.233890 -10.562166 0
M  V30 60 H 9.048276 8.939944 -8.683248 0
M  V30 61 H 10.178588 9.923614 -9.491468 0
M  V30 62 H 8.799878 4.275832 -14.747228 0
M  V30 63 H 7.464840 4.033904 -15.793377 0
M  V30 64 H 9.984293 9.499172 -6.532426 0
M  V30 65 H 11.434920 10.229565 -7.243195 0
M  V30 66 H 7.232412 3.769532 -11.161707 0
M  V30 67 H 8.685307 3.769354 -7.891545 0
M  V30 68 H 7.434737 4.893031 -7.398235 0
M  V30 69 H 7.063564 3.769276 -8.687424 0
M  V30 70 H 6.997938 -0.261347 -14.587751 0
M  V30 71 H 13.956647 8.783910 -10.313885 0
M  V30 72 H 11.033944 6.169308 -9.779978 0
M  V30 73 H 10.904450 5.117037 -7.688085 0
M  V30 74 H 9.959821 -0.025853 -19.617369 0
M  V30 75 H 6.068403 6.028363 -11.399206 0
M  V30 76 H 7.552484 7.011073 -11.491023 0
M  V30 77 H 6.435167 7.010419 -12.812258 0
M  V30 78 H 7.444481 5.775109 -9.565919 0
M  V30 79 H 8.456190 5.638833 -13.041887 0
M  V30 END ATOM
M  V30 BEGIN BOND
M  V30 1 1 3 2
M  V30 2 1 4 2
M  V30 3 1 11 5
M  V30 4 2 12 7
M  V30 5 1 14 10
M  V30 6 2 17 10
M  V30 7 1 18 4
M  V30 8 1 18 9
M  V30 9 1 19 9
M  V30 10 1 20 7
M  V30 11 2 20 8
M  V30 12 1 21 19
M  V30 13 1 22 16
M  V30 14 1 23 16
M  V30 15 1 24 11
M  V30 16 1 24 13
M  V30 17 1 24 23
M  V30 18 1 25 4
M  V30 19 1 25 21
M  V30 20 1 26 5
M  V30 21 1 26 6
M  V30 22 1 26 22
M  V30 23 1 28 10
M  V30 24 1 28 13
M  V30 25 1 28 20
M  V30 26 1 29 9
M  V30 27 1 30 1
M  V30 28 1 30 19
M  V30 29 1 31 1
M  V30 30 1 31 2
M  V30 31 1 31 30
M  V30 32 1 32 12
M  V30 33 1 33 12
M  V30 34 1 34 22
M  V30 35 1 35 8
M  V30 36 1 35 15
M  V30 37 2 35 33
M  V30 38 1 36 1
M  V30 39 1 36 6
M  V30 40 1 36 27
M  V30 41 1 1 37 CFG=1
M  V30 42 1 2 38 CFG=1
M  V30 43 1 39 3
M  V30 44 1 40 3
M  V30 45 1 41 3
M  V30 46 1 4 42 CFG=1
M  V30 47 1 43 5
M  V30 48 1 44 5
M  V30 49 1 45 6
M  V30 50 1 46 6
M  V30 51 1 47 7
M  V30 52 1 48 8
M  V30 53 1 49 32
M  V30 54 1 9 50 CFG=1
M  V30 55 1 51 11
M  V30 56 1 52 11
M  V30 57 1 53 13
M  V30 58 1 54 13
M  V30 59 1 55 16
M  V30 60 1 56 16
M  V30 61 1 57 18
M  V30 62 1 58 18
M  V30 63 1 19 59 CFG=3
M  V30 64 1 60 21
M  V30 65 1 61 21
M  V30 66 1 62 23
M  V30 67 1 63 23
M  V30 68 1 64 25
M  V30 69 1 65 25
M  V30 70 1 26 66 CFG=1
M  V30 71 1 67 27
M  V30 72 1 68 27
M  V30 73 1 69 27
M  V30 74 1 28 70 CFG=1
M  V30 75 1 71 29
M  V30 76 1 30 72 CFG=3
M  V30 77 1 31 73 CFG=3
M  V30 78 1 74 33
M  V30 79 1 75 34
M  V30 80 1 76 34
M  V30 81 1 77 34
M  V30 82 1 36 78 CFG=3
M  V30 83 1 22 79 CFG=3
M  V30 END BOND
M  V30 END CTAB
M  END
>  <i_epik_Tot_Q>  (1) 
0

>  <i_epik_Tot_abs_Q>  (1) 
2

>  <i_i_glide_confnum>  (1) 
709

>  <i_i_glide_lignum>  (1) 
136

>  <i_i_glide_posenum>  (1) 
289

>  <i_i_glide_rotatable_bonds>  (1) 
9

>  <i_lp_mmshare_version>  (1) 
72125

>  <i_m_source_file_index>  (1) 
68

>  <i_f3d_flags>  (1) 
0

>  <num_sample>  (1) 
100

>  <b_lp_Chiralities_Consistent>  (1) 
1

>  <r_epik_Charging_Adjusted_Penalty>  (1) 
1.0015811376701689

>  <r_epik_Ionization_Penalty>  (1) 
0.014205467742633596

>  <r_epik_Ionization_Penalty_Charging>  (1) 
0.0035901324651834211

>  <r_epik_Ionization_Penalty_Neutral>  (1) 
0.010615335277450176

>  <r_epik_State_Penalty>  (1) 
0.99799100520498552

>  <r_glide_ring_energy>  (1) 
1.3546004463474983

>  <r_i_docking_score>  (1) 
-2.9004844649362083

>  <r_i_glide_ecoul>  (1) 
-5.9546695653922157

>  <r_i_glide_eff_state_penalty>  (1) 
0.99799100520498552

>  <r_i_glide_einternal>  (1) 
79.431344260422975

>  <r_i_glide_emodel>  (1) 
32.459669300539076

>  <r_i_glide_emodel_strain>  (1) 
2.3544710739281953

>  <r_i_glide_energy>  (1) 
-6.2762745551728472

>  <r_i_glide_erotb>  (1) 
0.48522832276191719

>  <r_i_glide_esite>  (1) 
0

>  <r_i_glide_evdw>  (1) 
-0.32160498978063184

>  <r_i_glide_gscore>  (1) 
-3.8984754701411939

>  <r_i_glide_gscore_strain>  (1) 
0

>  <r_i_glide_hbond>  (1) 
-0.14846313202878483

>  <r_i_glide_ligand_efficiency>  (1) 
-0.080569012914894669

>  <r_i_glide_ligand_efficiency_ln>  (1) 
-0.63280734821468709

>  <r_i_glide_ligand_efficiency_sa>  (1) 
-0.26603301916023386

>  <r_i_glide_lipo>  (1) 
-2.2634869846374275

>  <r_i_glide_metal>  (1) 
-0

>  <r_i_glide_rewards>  (1) 
-1.0624729919390348

>  <r_lp_Energy>  (1) 
48.874657999999997

>  <s_epik_cmdline>  (1) 
J2VwaWtfcHl0aG9uJywgJy1waHQnLCAnMS4wJywgJy1waCcsICc3LjQnLCAnLXRuJywgJzgnLCAnLW1hJywgJzUwMCcsICctaW1hZScsICc8aW5maWxlLm1hZT4nLCAnLW9tYWUnLCAnPG91dGZpbGUubWFlPic=

>  <s_epik_input>  (1) 
W0NIM11bQ0BASF0oW0NAQEhdMTIpW0NAQEhdM1tDQEhdKFtDQEhdKFtDQEBIXShbQ0gyXTEpW09IXSlbQ0gyXVtDSDJdMilbQ0BIXTNbQ0BIXShbQ0gzXSlbQ0gyXVtDQEBIXTRbQ0gyXVtDSDJdTihbQ0gyXVtDSDJdTjRbQ0gzXSlbQ0gyXVtDQEBIXShDKD1PKVtPSF0pQyg9W0NIXUM1PU8pW0NIMl1DKEYpPVtDSF01

>  <s_glide_docking_method>  (1) 
confgen

>  <s_i_glide_gridfile>  (1) 
gpcr_drd2_6luq_protein_autoprepared_prepared

>  <s_lp_Force_Field>  (1) 
S-OPLS

>  <s_lp_Variant>  (1) 
DiffSBDD_67_num_sample_100-4

>  <s_m_source_file>  (1) 
generated__ligand_DiffSBDD_2026-05-06_prepared.sdf

>  <GenAI_Model>  (1) 
DiffSBDD

>  <Protein>  (1) 
generic_title2

$$$$
DiffSBDD_42_num_sample_100
     RDKit          3D

  0  0  0  0  0  0  0  0  0  0999 V3000
M  V30 BEGIN CTAB
M  V30 COUNTS 44 45 0 0 1
M  V30 BEGIN ATOM
M  V30 1 C 9.194968 6.094617 -10.309515 0 CFG=2
M  V30 2 O 10.740055 7.769292 -11.074154 0
M  V30 3 N 9.028362 4.818209 -14.460910 0
M  V30 4 C 6.791839 1.056785 -13.294002 0
M  V30 5 C 11.152121 5.177475 -16.067376 0
M  V30 6 O 9.817847 5.130475 -16.559008 0
M  V30 7 C 7.615082 2.223106 -13.775842 0 CFG=1
M  V30 8 N 10.649356 7.413233 -8.771953 0
M  V30 9 C 8.194442 5.748635 -12.437368 0 CFG=2
M  V30 10 C 9.132762 5.689523 -7.888525 0
M  V30 11 C 8.068292 3.331025 -12.838389 0
M  V30 12 C 7.683637 8.098805 -12.424619 0
M  V30 13 O 9.314051 5.547431 -11.620321 0
M  V30 14 C 10.276836 7.183852 -10.101819 0
M  V30 15 C 8.691309 4.969285 -15.802792 0
M  V30 16 N 8.094212 4.675196 -13.429619 0
M  V30 17 C 10.637937 7.063602 -6.353501 0
M  V30 18 O 7.554148 4.966831 -16.270980 0
M  V30 19 C 9.184531 5.007492 -9.247274 0
M  V30 20 N 8.234814 0.968898 -13.388971 0
M  V30 21 O 8.234840 6.978195 -13.091665 0
M  V30 22 C 10.179469 6.776726 -7.767524 0
M  V30 23 H 8.234828 6.569286 -10.220084 0
M  V30 24 H 10.008498 4.843350 -14.214452 0
M  V30 25 H 6.353631 1.110905 -12.299457 0
M  V30 26 H 6.212551 0.497106 -14.026536 0
M  V30 27 H 11.794499 5.633675 -16.820157 0
M  V30 28 H 11.246458 5.769425 -15.156843 0
M  V30 29 H 11.522801 4.169285 -15.891666 0
M  V30 30 H 7.617072 2.448318 -14.840283 0
M  V30 31 H 7.266275 5.652945 -11.868894 0
M  V30 32 H 9.263637 4.969308 -7.091687 0
M  V30 33 H 8.160618 6.151349 -7.740306 0
M  V30 34 H 9.061405 3.104243 -12.444503 0
M  V30 35 H 7.389610 3.357145 -11.985332 0
M  V30 36 H 7.834848 8.969238 -13.061578 0
M  V30 37 H 6.617997 7.964854 -12.238909 0
M  V30 38 H 8.176340 8.336933 -11.488679 0
M  V30 39 H 9.779985 7.161881 -5.688640 0
M  V30 40 H 11.266794 6.249441 -5.990857 0
M  V30 41 H 11.211950 7.989733 -6.311800 0
M  V30 42 H 8.299873 4.387431 -9.380573 0
M  V30 43 H 10.053259 4.357284 -9.326044 0
M  V30 44 H 8.762058 0.969325 -12.521070 0
M  V30 END ATOM
M  V30 BEGIN BOND
M  V30 1 1 6 5
M  V30 2 1 7 4
M  V30 3 1 11 7
M  V30 4 1 13 1
M  V30 5 1 13 9
M  V30 6 1 14 1
M  V30 7 2 14 2
M  V30 8 1 14 8
M  V30 9 1 15 3
M  V30 10 1 15 6
M  V30 11 1 16 3
M  V30 12 1 16 9
M  V30 13 1 16 11
M  V30 14 2 18 15
M  V30 15 1 19 1
M  V30 16 1 19 10
M  V30 17 1 20 4
M  V30 18 1 20 7
M  V30 19 1 21 9
M  V30 20 1 21 12
M  V30 21 2 22 8
M  V30 22 1 22 10
M  V30 23 1 22 17
M  V30 24 1 1 23 CFG=3
M  V30 25 1 24 3
M  V30 26 1 25 4
M  V30 27 1 26 4
M  V30 28 1 27 5
M  V30 29 1 28 5
M  V30 30 1 29 5
M  V30 31 1 7 30 CFG=3
M  V30 32 1 9 31 CFG=1
M  V30 33 1 32 10
M  V30 34 1 33 10
M  V30 35 1 34 11
M  V30 36 1 35 11
M  V30 37 1 36 12
M  V30 38 1 37 12
M  V30 39 1 38 12
M  V30 40 1 39 17
M  V30 41 1 40 17
M  V30 42 1 41 17
M  V30 43 1 42 19
M  V30 44 1 43 19
M  V30 45 1 44 20
M  V30 END BOND
M  V30 END CTAB
M  END
>  <i_epik_Tot_Q>  (1) 
0

>  <i_epik_Tot_abs_Q>  (1) 
0

>  <i_i_glide_confnum>  (1) 
336

>  <i_i_glide_lignum>  (1) 
74

>  <i_i_glide_posenum>  (1) 
208

>  <i_i_glide_rotatable_bonds>  (1) 
9

>  <i_lp_mmshare_version>  (1) 
72125

>  <i_m_source_file_index>  (1) 
43

>  <i_f3d_flags>  (1) 
0

>  <num_sample>  (1) 
100

>  <b_lp_Chiralities_Consistent>  (1) 
1

>  <r_epik_Charging_Adjusted_Penalty>  (1) 
0.73434514420425445

>  <r_epik_Ionization_Penalty>  (1) 
0.73524222016862195

>  <r_epik_Ionization_Penalty_Charging>  (1) 
0

>  <r_epik_Ionization_Penalty_Neutral>  (1) 
0.73524222016862195

>  <r_epik_State_Penalty>  (1) 
0.73434514420425445

>  <r_glide_ring_energy>  (1) 
0.0014600404396934196

>  <r_i_docking_score>  (1) 
-2.8974002577643119

>  <r_i_glide_ecoul>  (1) 
-7.0255669005463215

>  <r_i_glide_eff_state_penalty>  (1) 
0.73434514420425445

>  <r_i_glide_einternal>  (1) 
12.906146871242109

>  <r_i_glide_emodel>  (1) 
-34.333044061344403

>  <r_i_glide_emodel_strain>  (1) 
2.5593399341424146

>  <r_i_glide_energy>  (1) 
-34.934987188364936

>  <r_i_glide_erotb>  (1) 
1.1286281717494191

>  <r_i_glide_esite>  (1) 
-0.066439246513996505

>  <r_i_glide_evdw>  (1) 
-27.909420287818616

>  <r_i_glide_gscore>  (1) 
-3.6317454019685664

>  <r_i_glide_gscore_strain>  (1) 
0

>  <r_i_glide_hbond>  (1) 
-0.29947893793838787

>  <r_i_glide_ligand_efficiency>  (1) 
-0.13170001171655962

>  <r_i_glide_ligand_efficiency_ln>  (1) 
-0.70823030823985966

>  <r_i_glide_ligand_efficiency_sa>  (1) 
-0.36902861267757542

>  <r_i_glide_lipo>  (1) 
-0.95225333552669411

>  <r_i_glide_metal>  (1) 
-0

>  <r_i_glide_rewards>  (1) 
-0.9928960042660272

>  <r_lp_Energy>  (1) 
12.752139999999999

>  <s_epik_Chemistry_Notes>  (1) 
This compound has an ester and may undergo hydrolysis at high or low pH. This compound has an imine and may undergo hydrolysis. This compound contains an acetal/aminal-like group ( X-CH(R)-Y where X, Y are N, S, or O) that may be acid/base labile, releasing an aldehyde.

>  <s_epik_cmdline>  (1) 
J2VwaWtfcHl0aG9uJywgJy1waHQnLCAnMS4wJywgJy1waCcsICc3LjQnLCAnLXRuJywgJzgnLCAnLW1hJywgJzUwMCcsICctaW1hZScsICc8aW5maWxlLm1hZT4nLCAnLW9tYWUnLCAnPG91dGZpbGUubWFlPic=

>  <s_epik_input>  (1) 
W0NIMl0xW0NIMl1DKFtDSDNdKT1OQyg9TylbQ0BIXTFPW0NAQEhdKE9bQ0gzXSlOKFtOSF1DKD1PKU9bQ0gzXSlbQ0gyXVtDQEBIXTJbQ0gyXVtOSF0y

>  <s_glide_docking_method>  (1) 
confgen

>  <s_i_glide_gridfile>  (1) 
gpcr_drd2_6luq_protein_autoprepared_prepared

>  <s_lp_Force_Field>  (1) 
S-OPLS

>  <s_lp_Variant>  (1) 
DiffSBDD_42_num_sample_100-2

>  <s_m_source_file>  (1) 
generated__ligand_DiffSBDD_2026-05-06_prepared.sdf

>  <GenAI_Model>  (1) 
DiffSBDD

>  <Protein>  (1) 
generic_title2

$$$$
DiffSBDD_55_num_sample_100
     RDKit          3D

  0  0  0  0  0  0  0  0  0  0999 V3000
M  V30 BEGIN CTAB
M  V30 COUNTS 50 53 0 0 1
M  V30 BEGIN ATOM
M  V30 1 O 5.321895 -1.931445 -19.557029 0
M  V30 2 C 15.253814 0.262116 -19.268597 0
M  V30 3 C 8.835021 -0.540806 -17.399273 0
M  V30 4 C 9.507755 0.889504 -20.171229 0
M  V30 5 C 6.074583 0.259663 -17.584139 0 CFG=2
M  V30 6 C 6.377267 -1.231202 -17.459876 0 CFG=1
M  V30 7 S 14.442496 2.829427 -18.970174 0
M  V30 8 C 15.165417 1.572570 -20.059596 0
M  V30 9 C 14.155643 0.324398 -18.215979 0
M  V30 10 C 5.592888 -4.195599 -19.175962 0
M  V30 11 N 8.566617 0.829141 -17.832064 0
M  V30 12 C 5.248815 -2.054757 -18.136289 0 CFG=2
M  V30 13 C 7.819008 -1.560228 -17.944540 0 CFG=2
M  V30 14 C 5.232862 -3.563861 -17.847325 0
M  V30 15 C 5.029093 -3.182988 -20.159903 0
M  V30 16 C 12.033585 1.477304 -18.765440 0
M  V30 17 C 9.483523 1.504898 -18.756748 0 CFG=1
M  V30 18 C 13.392380 1.634411 -18.110301 0 CFG=2
M  V30 19 C 6.210729 0.989798 -18.900512 0
M  V30 20 O 13.901296 -0.630699 -17.491788 0
M  V30 21 O 8.234036 -2.835004 -17.491813 0
M  V30 22 C 10.865055 1.650163 -18.117294 0
M  V30 23 C 7.177884 1.283291 -17.773387 0 CFG=1
M  V30 24 H 15.134151 -0.609441 -19.912002 0
M  V30 25 H 16.215859 0.179713 -18.764107 0
M  V30 26 H 8.811409 -0.573183 -16.309160 0
M  V30 27 H 9.846273 -0.833596 -17.684153 0
M  V30 28 H 10.108765 1.489274 -20.855036 0
M  V30 29 H 9.910096 -0.124172 -20.159546 0
M  V30 30 H 8.513981 0.844964 -20.610160 0
M  V30 31 H 5.237631 0.574232 -16.964697 0
M  V30 32 H 6.335273 -1.430926 -16.388798 0
M  V30 33 H 14.517138 1.442218 -20.926991 0
M  V30 34 H 16.142030 1.896459 -20.420766 0
M  V30 35 H 5.173249 -5.194113 -19.300051 0
M  V30 36 H 6.675925 -4.259614 -19.285016 0
M  V30 37 H 4.285923 -1.650387 -17.818380 0
M  V30 38 H 7.862723 -1.557607 -19.034036 0
M  V30 39 H 5.889370 -3.868179 -17.032482 0
M  V30 40 H 4.223588 -3.863622 -17.561473 0
M  V30 41 H 3.948963 -3.302453 -20.250776 0
M  V30 42 H 5.470668 -3.263781 -21.153388 0
M  V30 43 H 12.035297 1.212964 -19.811196 0
M  V30 44 H 9.128557 2.530417 -18.867142 0
M  V30 45 H 13.276377 1.922771 -17.065024 0
M  V30 46 H 5.462240 1.746060 -19.127287 0
M  V30 47 H 6.543299 0.404522 -19.752838 0
M  V30 48 H 8.060249 -2.905539 -16.553091 0
M  V30 49 H 10.878512 1.914809 -17.071889 0
M  V30 50 H 7.087515 2.244043 -17.269737 0
M  V30 END ATOM
M  V30 BEGIN BOND
M  V30 1 1 6 5
M  V30 2 1 8 2
M  V30 3 1 8 7
M  V30 4 1 9 2
M  V30 5 1 11 3
M  V30 6 1 12 1
M  V30 7 1 12 6
M  V30 8 1 13 3
M  V30 9 1 13 6
M  V30 10 1 14 10
M  V30 11 1 14 12
M  V30 12 1 15 1
M  V30 13 1 15 10
M  V30 14 1 17 4
M  V30 15 1 17 11
M  V30 16 1 18 7
M  V30 17 1 18 9
M  V30 18 1 18 16
M  V30 19 1 19 5
M  V30 20 2 20 9
M  V30 21 1 21 13
M  V30 22 2 22 16
M  V30 23 1 22 17
M  V30 24 1 23 5
M  V30 25 1 23 11
M  V30 26 1 23 19
M  V30 27 1 24 2
M  V30 28 1 25 2
M  V30 29 1 26 3
M  V30 30 1 27 3
M  V30 31 1 28 4
M  V30 32 1 29 4
M  V30 33 1 30 4
M  V30 34 1 5 31 CFG=1
M  V30 35 1 6 32 CFG=1
M  V30 36 1 33 8
M  V30 37 1 34 8
M  V30 38 1 35 10
M  V30 39 1 36 10
M  V30 40 1 12 37 CFG=1
M  V30 41 1 13 38 CFG=3
M  V30 42 1 39 14
M  V30 43 1 40 14
M  V30 44 1 41 15
M  V30 45 1 42 15
M  V30 46 1 43 16
M  V30 47 1 17 44 CFG=3
M  V30 48 1 18 45 CFG=1
M  V30 49 1 46 19
M  V30 50 1 47 19
M  V30 51 1 48 21
M  V30 52 1 49 22
M  V30 53 1 23 50 CFG=1
M  V30 END BOND
M  V30 END CTAB
M  END
>  <i_epik_Tot_Q>  (1) 
0

>  <i_epik_Tot_abs_Q>  (1) 
0

>  <i_i_glide_confnum>  (1) 
126

>  <i_i_glide_lignum>  (1) 
110

>  <i_i_glide_posenum>  (1) 
31

>  <i_i_glide_rotatable_bonds>  (1) 
5

>  <i_lp_mmshare_version>  (1) 
72125

>  <i_m_source_file_index>  (1) 
56

>  <i_f3d_flags>  (1) 
0

>  <num_sample>  (1) 
100

>  <b_lp_Chiralities_Consistent>  (1) 
1

>  <r_epik_Charging_Adjusted_Penalty>  (1) 
1.1351003249830234

>  <r_epik_Ionization_Penalty>  (1) 
1.13510036387319

>  <r_epik_Ionization_Penalty_Charging>  (1) 
0

>  <r_epik_Ionization_Penalty_Neutral>  (1) 
1.13510036387319

>  <r_epik_State_Penalty>  (1) 
1.1351003249830234

>  <r_glide_ring_energy>  (1) 
1.1829721722469759

>  <r_i_docking_score>  (1) 
-2.8922090976844066

>  <r_i_glide_ecoul>  (1) 
-5.8984495209712957

>  <r_i_glide_eff_state_penalty>  (1) 
1.1351003249830234

>  <r_i_glide_einternal>  (1) 
12.516184527920934

>  <r_i_glide_emodel>  (1) 
-28.890718521544652

>  <r_i_glide_emodel_strain>  (1) 
0.0099682853182798681

>  <r_i_glide_energy>  (1) 
-30.275165267941901

>  <r_i_glide_erotb>  (1) 
0.4978175189556282

>  <r_i_glide_esite>  (1) 
0

>  <r_i_glide_evdw>  (1) 
-24.376715746970604

>  <r_i_glide_gscore>  (1) 
-4.0273094226674298

>  <r_i_glide_gscore_strain>  (1) 
0

>  <r_i_glide_hbond>  (1) 
-0.32000000000000001

>  <r_i_glide_ligand_efficiency>  (1) 
-0.12574822163845245

>  <r_i_glide_ligand_efficiency_ln>  (1) 
-0.69936238492225633

>  <r_i_glide_ligand_efficiency_sa>  (1) 
-0.35761121529265111

>  <r_i_glide_lipo>  (1) 
-0.69372906536742385

>  <r_i_glide_metal>  (1) 
-0

>  <r_i_glide_rewards>  (1) 
-1.4077946607614096

>  <r_lp_Energy>  (1) 
17.093762999999999

>  <r_lp_tautomer_probability>  (1) 
0.99995000000000001

>  <s_epik_cmdline>  (1) 
J2VwaWtfcHl0aG9uJywgJy1waHQnLCAnMS4wJywgJy1waCcsICc3LjQnLCAnLXRuJywgJzgnLCAnLW1hJywgJzUwMCcsICctaW1hZScsICc8aW5maWxlLm1hZT4nLCAnLW9tYWUnLCAnPG91dGZpbGUubWFlPic=

>  <s_epik_input>  (1) 
W0NIMl0xW0NIMl1bQ0gyXU9bQ0BASF0xW0NASF0yW0NASF0oW09IXSlbQ0gyXU4oW0NASF0oW0NASF0yMylbQ0gyXTMpW0NASF0oW0NIM10pXFtDSF09W0NIXVxbQ0BASF00U1tDSDJdW0NIMl1DND1P

>  <s_glide_docking_method>  (1) 
confgen

>  <s_i_glide_gridfile>  (1) 
gpcr_drd2_6luq_protein_autoprepared_prepared

>  <s_lp_Force_Field>  (1) 
S-OPLS

>  <s_lp_Variant>  (1) 
DiffSBDD_55_num_sample_100-11

>  <s_m_source_file>  (1) 
generated__ligand_DiffSBDD_2026-05-06_prepared.sdf

>  <GenAI_Model>  (1) 
DiffSBDD

>  <Protein>  (1) 
generic_title2

$$$$
DiffSBDD_50_num_sample_100
     RDKit          3D

  0  0  0  0  0  0  0  0  0  0999 V3000
M  V30 BEGIN CTAB
M  V30 COUNTS 73 76 0 0 1
M  V30 BEGIN ATOM
M  V30 1 C 9.224332 0.175231 -18.791671 0
M  V30 2 C 8.493008 5.246713 -13.314257 0 CFG=1
M  V30 3 S 9.929409 2.634951 -18.306016 0
M  V30 4 C 4.667086 6.531301 -18.360754 0
M  V30 5 C 8.149726 2.344990 -18.819641 0 CFG=1
M  V30 6 C 6.183857 4.472322 -13.907711 0
M  V30 7 F 5.577009 5.316581 -23.888039 0
M  V30 8 C 8.124068 2.814118 -13.308143 0
M  V30 9 O 7.496578 4.569108 -11.156064 0
M  V30 10 O 5.719106 5.344185 -14.679900 0
M  V30 11 C 7.913464 5.382503 -18.735054 0
M  V30 12 C 10.222799 0.945900 -18.439052 0
M  V30 13 C 9.146877 6.900424 -10.907071 0
M  V30 14 O 4.857242 8.141742 -23.138273 0 CHG=-1
M  V30 15 C 4.843494 5.536357 -19.572265 0 CFG=2
M  V30 16 F 6.803428 4.429549 -22.330479 0
M  V30 17 C 5.034081 7.768872 -18.586433 0
M  V30 18 N 5.906587 7.659641 -22.721562 0 CHG=1
M  V30 19 O 9.739582 5.369303 -13.981377 0
M  V30 20 C 8.022272 3.953978 -15.591000 0
M  V30 21 O 5.743925 4.433764 -19.367428 0
M  V30 22 C 5.826046 6.517053 -21.859920 0 CHG=-1
M  V30 23 C 7.888404 0.790518 -19.056666 0
M  V30 24 C 9.115508 3.235102 -12.227065 0
M  V30 25 C 6.717806 4.494124 -18.318913 0 CFG=1
M  V30 26 C 7.229136 2.843832 -16.351058 0 CFG=2
M  V30 27 C 8.846452 7.581491 -12.249668 0
M  V30 28 C 8.702812 4.653108 -11.905834 0 CFG=1
M  V30 29 C 5.727350 5.179862 -22.572791 0
M  V30 30 N 11.510180 0.549311 -18.152924 0
M  V30 31 O 5.545215 3.877840 -13.010951 0 CHG=-1
M  V30 32 C 9.685736 5.484410 -11.081853 0
M  V30 33 C 7.956267 6.708188 -13.175721 0
M  V30 34 O 7.728988 1.550597 -16.069939 0
M  V30 35 C 7.083275 3.032950 -17.903728 0 CFG=2
M  V30 36 C 5.413675 6.707239 -20.481008 0
M  V30 37 C 7.689034 4.118162 -14.068033 0 CFG=2
M  V30 38 O 7.019155 8.096739 -22.994259 0
M  V30 39 C 5.480460 7.884459 -19.868777 0
M  V30 40 H 9.333541 -0.894309 -18.891654 0
M  V30 41 H 4.279469 6.184325 -17.413219 0
M  V30 42 H 8.065233 2.792666 -19.810096 0
M  V30 43 H 7.292318 2.268268 -12.864287 0
M  V30 44 H 8.632665 2.087235 -13.931138 0
M  V30 45 H 6.797158 4.275709 -11.740337 0
M  V30 46 H 8.741446 5.314948 -18.030518 0
M  V30 47 H 8.297530 5.111227 -19.718729 0
M  V30 48 H 7.628868 6.432935 -18.775880 0
M  V30 49 H 8.235502 6.786933 -10.339335 0
M  V30 50 H 9.833667 7.508205 -10.317596 0
M  V30 51 H 3.881895 5.190732 -19.951885 0
M  V30 52 H 4.995363 8.565271 -17.864371 0
M  V30 53 H 10.377530 5.696893 -13.366135 0
M  V30 54 H 7.855708 4.934731 -16.025265 0
M  V30 55 H 9.080482 3.771657 -15.751955 0
M  V30 56 H 7.150383 0.364504 -18.379796 0
M  V30 57 H 7.570505 0.584143 -20.077581 0
M  V30 58 H 10.128316 3.239989 -12.626760 0
M  V30 59 H 9.119877 2.569301 -11.381275 0
M  V30 60 H 6.242332 4.928355 -17.443369 0
M  V30 61 H 6.239569 2.787540 -15.899650 0
M  V30 62 H 8.356442 8.540054 -12.074339 0
M  V30 63 H 9.810376 7.811226 -12.691691 0
M  V30 64 H 4.855501 4.629122 -22.220124 0
M  V30 65 H 11.756558 -0.427179 -18.094899 0
M  V30 66 H 9.836419 5.019806 -10.106012 0
M  V30 67 H 10.634716 5.550386 -11.602132 0
M  V30 68 H 6.962072 6.712483 -12.724629 0
M  V30 69 H 7.836855 7.168685 -14.158768 0
M  V30 70 H 7.055768 0.916881 -16.265408 0
M  V30 71 H 6.173243 2.474182 -18.124721 0
M  V30 72 H 5.838187 8.799044 -20.316855 0
M  V30 73 H 12.188039 1.199005 -17.781149 0
M  V30 END ATOM
M  V30 BEGIN BOND
M  V30 1 1 5 3
M  V30 2 2 10 6
M  V30 3 2 12 1
M  V30 4 1 12 3
M  V30 5 1 15 4
M  V30 6 2 17 4
M  V30 7 1 18 14
M  V30 8 1 2 19 CFG=3
M  V30 9 1 21 15
M  V30 10 1 22 18
M  V30 11 1 23 1
M  V30 12 1 23 5
M  V30 13 1 24 8
M  V30 14 1 25 11
M  V30 15 1 25 21
M  V30 16 1 26 20
M  V30 17 1 27 13
M  V30 18 1 28 2
M  V30 19 1 28 9 CFG=1
M  V30 20 1 28 24
M  V30 21 1 29 7
M  V30 22 1 29 16
M  V30 23 1 29 22
M  V30 24 1 30 12
M  V30 25 1 31 6
M  V30 26 1 32 13
M  V30 27 1 32 28
M  V30 28 1 33 2
M  V30 29 1 33 27
M  V30 30 1 34 26
M  V30 31 1 35 5
M  V30 32 1 35 25
M  V30 33 1 35 26
M  V30 34 1 36 15
M  V30 35 1 36 22
M  V30 36 1 37 2
M  V30 37 1 37 6
M  V30 38 1 37 8
M  V30 39 1 37 20 CFG=3
M  V30 40 2 38 18
M  V30 41 1 39 17
M  V30 42 2 39 36
M  V30 43 1 40 1
M  V30 44 1 41 4
M  V30 45 1 5 42 CFG=3
M  V30 46 1 43 8
M  V30 47 1 44 8
M  V30 48 1 45 9
M  V30 49 1 46 11
M  V30 50 1 47 11
M  V30 51 1 48 11
M  V30 52 1 49 13
M  V30 53 1 50 13
M  V30 54 1 15 51 CFG=3
M  V30 55 1 52 17
M  V30 56 1 53 19
M  V30 57 1 54 20
M  V30 58 1 55 20
M  V30 59 1 56 23
M  V30 60 1 57 23
M  V30 61 1 58 24
M  V30 62 1 59 24
M  V30 63 1 25 60 CFG=1
M  V30 64 1 26 61 CFG=1
M  V30 65 1 62 27
M  V30 66 1 63 27
M  V30 67 1 64 29
M  V30 68 1 65 30
M  V30 69 1 66 32
M  V30 70 1 67 32
M  V30 71 1 68 33
M  V30 72 1 69 33
M  V30 73 1 70 34
M  V30 74 1 35 71 CFG=3
M  V30 75 1 72 39
M  V30 76 1 73 30
M  V30 END BOND
M  V30 END CTAB
M  END
>  <i_epik_Tot_Q>  (1) 
-2

>  <i_epik_Tot_abs_Q>  (1) 
4

>  <i_i_glide_confnum>  (1) 
527

>  <i_i_glide_lignum>  (1) 
95

>  <i_i_glide_posenum>  (1) 
66

>  <i_i_glide_rotatable_bonds>  (1) 
14

>  <i_lp_mmshare_version>  (1) 
72125

>  <i_m_source_file_index>  (1) 
51

>  <i_f3d_flags>  (1) 
0

>  <num_sample>  (1) 
100

>  <b_lp_Chiralities_Consistent>  (1) 
1

>  <r_epik_Charging_Adjusted_Penalty>  (1) 
0.034577084899783249

>  <r_epik_Ionization_Penalty>  (1) 
0.017860666668860211

>  <r_epik_Ionization_Penalty_Charging>  (1) 
0.017835632133054159

>  <r_epik_Ionization_Penalty_Neutral>  (1) 
2.5034535806051729e-05

>  <r_epik_State_Penalty>  (1) 
0.01674145276672909

>  <r_glide_ring_energy>  (1) 
0

>  <r_i_docking_score>  (1) 
-2.8871352583301344

>  <r_i_glide_ecoul>  (1) 
1.0913038458099678

>  <r_i_glide_eff_state_penalty>  (1) 
0.01674145276672909

>  <r_i_glide_einternal>  (1) 
15.601398723551078

>  <r_i_glide_emodel>  (1) 
-12.589784808412389

>  <r_i_glide_emodel_strain>  (1) 
1.8802884701258336

>  <r_i_glide_energy>  (1) 
-18.445387407842496

>  <r_i_glide_erotb>  (1) 
0.41647013485751849

>  <r_i_glide_esite>  (1) 
-0.00074796574109094877

>  <r_i_glide_evdw>  (1) 
-19.536691253652464

>  <r_i_glide_gscore>  (1) 
-2.9038767110968635

>  <r_i_glide_gscore_strain>  (1) 
0

>  <r_i_glide_hbond>  (1) 
0

>  <r_i_glide_ligand_efficiency>  (1) 
-0.074029109187952163

>  <r_i_glide_ligand_efficiency_ln>  (1) 
-0.61908375559401208

>  <r_i_glide_ligand_efficiency_sa>  (1) 
-0.25104836219432858

>  <r_i_glide_lipo>  (1) 
-2.0733277875497329

>  <r_i_glide_metal>  (1) 
-0

>  <r_i_glide_rewards>  (1) 
-0.43313210685242953

>  <r_lp_Energy>  (1) 
37.244749999999996

>  <s_epik_Chemistry_Notes>  (1) 
This compound has an imine and may undergo hydrolysis.

>  <s_epik_cmdline>  (1) 
J2VwaWtfcHl0aG9uJywgJy1waHQnLCAnMS4wJywgJy1waCcsICc3LjQnLCAnLXRuJywgJzgnLCAnLW1hJywgJzUwMCcsICctaW1hZScsICc8aW5maWxlLm1hZT4nLCAnLW9tYWUnLCAnPG91dGZpbGUubWFlPic=

>  <s_epik_input>  (1) 
W0NIMl0xW0NIMl1bQ0gyXVtDSDJdW0NAQF0oW09IXSkoW0NAXTEyW09IXSlbQ0gyXVtDSDJdW0NAXTIoQyg9TylbT0hdKVtDSDJdW0NASF0oW09IXSlbQ0BIXShbQ0BIXTNTQyg9Ti9bSF0pXFtDSDJdW0NIMl0zKVtDQEBIXShbQ0gzXSlPW0NASF00W0NIXT1bQ0hdW0NIXT1DNFtDQEBIXShbTitdKFtPLV0pPU8pW0NIXShGKUY=

>  <s_glide_docking_method>  (1) 
confgen

>  <s_i_glide_gridfile>  (1) 
gpcr_drd2_6luq_protein_autoprepared_prepared

>  <s_lp_Force_Field>  (1) 
S-OPLS

>  <s_lp_Variant>  (1) 
DiffSBDD_50_num_sample_100-1

>  <s_m_source_file>  (1) 
generated__ligand_DiffSBDD_2026-05-06_prepared.sdf

>  <GenAI_Model>  (1) 
DiffSBDD

>  <Protein>  (1) 
generic_title2

$$$$
DiffSBDD_56_num_sample_100
     RDKit          3D

  0  0  0  0  0  0  0  0  0  0999 V3000
M  V30 BEGIN CTAB
M  V30 COUNTS 70 76 0 0 1
M  V30 BEGIN ATOM
M  V30 1 O 19.375023 7.167119 -19.482939 0
M  V30 2 C 8.010066 0.379915 -19.597197 0
M  V30 3 C 6.115976 2.853296 -21.645284 0
M  V30 4 C 7.777178 3.176166 -19.684808 0
M  V30 5 C 14.045904 6.334301 -17.734072 0 CFG=2
M  V30 6 C 10.197419 2.856405 -19.050669 0
M  V30 7 F 9.502521 3.830080 -21.055732 0
M  V30 8 C 17.388034 8.062723 -18.398741 0
M  V30 9 C 12.106231 1.717106 -17.761696 0 CFG=1
M  V30 10 C 18.063688 6.996828 -19.051261 0
M  V30 11 C 9.079558 -0.251638 -19.190951 0
M  V30 12 C 13.110071 3.913957 -17.695742 0 CFG=1
M  V30 13 C 13.467912 1.187178 -18.083998 0
M  V30 14 N 13.916638 4.947069 -18.409961 0 CFG=2 CHG=1
M  V30 15 C 5.793257 -0.083210 -20.636536 0
M  V30 16 C 9.205001 2.852535 -20.195030 0 CFG=2
M  V30 17 C 16.057755 5.633000 -18.799679 0
M  V30 18 C 20.108783 6.109968 -20.145992 0
M  V30 19 C 18.077981 4.678384 -19.923946 0
M  V30 20 C 6.910379 0.855990 -20.149758 0
M  V30 21 C 18.091158 9.387935 -18.169941 0
M  V30 22 C 15.250082 4.407359 -18.955462 0
M  V30 23 C 11.620549 4.336306 -17.457605 0
M  V30 24 C 19.331115 4.823350 -20.339505 0
M  V30 25 C 10.610193 4.081935 -18.586999 0
M  V30 26 C 17.387724 5.764610 -19.256590 0
M  V30 27 C 5.299405 2.932206 -20.375493 0
M  V30 28 C 13.097508 2.608902 -18.463007 0 CFG=1
M  V30 29 O 6.085512 -1.457609 -20.438377 0
M  V30 30 C 10.826183 1.581738 -18.487632 0
M  V30 31 C 15.427121 6.641412 -18.176156 0
M  V30 32 C 13.981643 6.326520 -16.189579 0
M  V30 33 C 10.341967 0.281063 -18.606883 0
M  V30 34 C 16.055296 7.881437 -17.960171 0
M  V30 35 C 6.695365 2.335414 -20.341150 0
M  V30 36 H 6.526625 3.780866 -22.041232 0
M  V30 37 H 5.794348 2.142486 -22.401649 0
M  V30 38 H 7.712673 3.013106 -18.607644 0
M  V30 39 H 7.556404 4.235287 -19.823220 0
M  V30 40 H 13.335436 7.043698 -18.162018 0
M  V30 41 H 11.951849 1.805398 -16.691667 0
M  V30 42 H 9.024580 -1.329887 -19.201618 0
M  V30 43 H 13.587172 3.726575 -16.733422 0
M  V30 44 H 13.537572 0.448613 -18.881405 0
M  V30 45 H 14.167542 1.051049 -17.260834 0
M  V30 46 H 5.594495 0.063216 -21.696872 0
M  V30 47 H 4.861265 0.133471 -20.118635 0
M  V30 48 H 9.339678 1.998414 -20.854427 0
M  V30 49 H 20.439170 6.475243 -21.119694 0
M  V30 50 H 21.007754 5.893153 -19.567326 0
M  V30 51 H 17.550819 3.748213 -20.074512 0
M  V30 52 H 17.582860 9.982750 -17.410518 0
M  V30 53 H 19.117826 9.232433 -17.839320 0
M  V30 54 H 18.112986 9.963093 -19.094434 0
M  V30 55 H 15.662734 3.606161 -18.339500 0
M  V30 56 H 15.165287 4.090772 -19.995591 0
M  V30 57 H 11.551446 5.400461 -17.241386 0
M  V30 58 H 11.226530 3.873890 -16.553733 0
M  V30 59 H 19.839049 4.008252 -20.835459 0
M  V30 60 H 10.181011 4.970883 -19.027697 0
M  V30 61 H 4.440848 2.273127 -20.285066 0
M  V30 62 H 5.152389 3.919000 -19.941560 0
M  V30 63 H 12.967897 2.742106 -19.537865 0
M  V30 64 H 6.089703 -1.629479 -19.508026 0
M  V30 65 H 14.209708 7.318079 -15.805863 0
M  V30 66 H 13.004264 6.069118 -15.785913 0
M  V30 67 H 14.709151 5.635607 -15.760922 0
M  V30 68 H 10.975414 -0.474268 -18.163514 0
M  V30 69 H 15.529508 8.682694 -17.461905 0
M  V30 70 H 13.390748 5.147413 -19.249055 0
M  V30 END ATOM
M  V30 BEGIN BOND
M  V30 1 1 10 1
M  V30 2 1 10 8
M  V30 3 2 11 2
M  V30 4 1 13 9
M  V30 5 1 14 5
M  V30 6 1 14 12
M  V30 7 1 16 4
M  V30 8 1 16 6
M  V30 9 1 16 7
M  V30 10 1 18 1
M  V30 11 2 20 2
M  V30 12 1 20 15
M  V30 13 1 21 8
M  V30 14 1 22 14
M  V30 15 1 22 17
M  V30 16 1 23 12
M  V30 17 1 24 18
M  V30 18 2 24 19
M  V30 19 2 25 6
M  V30 20 1 25 23
M  V30 21 2 26 10
M  V30 22 1 26 17
M  V30 23 1 26 19
M  V30 24 1 27 3
M  V30 25 1 28 9
M  V30 26 1 28 12
M  V30 27 1 28 13
M  V30 28 1 29 15
M  V30 29 1 30 6
M  V30 30 1 30 9
M  V30 31 1 31 5
M  V30 32 2 31 17
M  V30 33 1 32 5
M  V30 34 1 33 11
M  V30 35 2 33 30
M  V30 36 2 34 8
M  V30 37 1 34 31
M  V30 38 1 35 3
M  V30 39 1 35 4
M  V30 40 1 35 20
M  V30 41 1 35 27
M  V30 42 1 36 3
M  V30 43 1 37 3
M  V30 44 1 38 4
M  V30 45 1 39 4
M  V30 46 1 5 40 CFG=3
M  V30 47 1 9 41 CFG=1
M  V30 48 1 42 11
M  V30 49 1 12 43 CFG=1
M  V30 50 1 44 13
M  V30 51 1 45 13
M  V30 52 1 46 15
M  V30 53 1 47 15
M  V30 54 1 16 48 CFG=3
M  V30 55 1 49 18
M  V30 56 1 50 18
M  V30 57 1 51 19
M  V30 58 1 52 21
M  V30 59 1 53 21
M  V30 60 1 54 21
M  V30 61 1 55 22
M  V30 62 1 56 22
M  V30 63 1 57 23
M  V30 64 1 58 23
M  V30 65 1 59 24
M  V30 66 1 60 25
M  V30 67 1 61 27
M  V30 68 1 62 27
M  V30 69 1 28 63 CFG=3
M  V30 70 1 64 29
M  V30 71 1 65 32
M  V30 72 1 66 32
M  V30 73 1 67 32
M  V30 74 1 68 33
M  V30 75 1 69 34
M  V30 76 1 14 70 CFG=3
M  V30 END BOND
M  V30 END CTAB
M  END
>  <i_epik_Tot_Q>  (1) 
1

>  <i_epik_Tot_abs_Q>  (1) 
1

>  <i_i_glide_confnum>  (1) 
8

>  <i_i_glide_lignum>  (1) 
113

>  <i_i_glide_posenum>  (1) 
307

>  <i_i_glide_rotatable_bonds>  (1) 
3

>  <i_lp_mmshare_version>  (1) 
72125

>  <i_m_source_file_index>  (1) 
57

>  <i_f3d_flags>  (1) 
0

>  <num_sample>  (1) 
100

>  <b_lp_Chiralities_Consistent>  (1) 
1

>  <r_epik_Charging_Adjusted_Penalty>  (1) 
0.14231297848205576

>  <r_epik_Ionization_Penalty>  (1) 
0.071157794031890806

>  <r_epik_Ionization_Penalty_Charging>  (1) 
0.071156489241027923

>  <r_epik_Ionization_Penalty_Neutral>  (1) 
1.3047908628845687e-06

>  <r_epik_State_Penalty>  (1) 
0.071156489241027826

>  <r_glide_ring_energy>  (1) 
0

>  <r_i_docking_score>  (1) 
-2.8791641454951047

>  <r_i_glide_ecoul>  (1) 
-2.1272351474021338

>  <r_i_glide_eff_state_penalty>  (1) 
0.071156489241027826

>  <r_i_glide_einternal>  (1) 
0.52450608128652298

>  <r_i_glide_emodel>  (1) 
-29.117435663434183

>  <r_i_glide_emodel_strain>  (1) 
0.21882723418315209

>  <r_i_glide_energy>  (1) 
-25.530472517121282

>  <r_i_glide_erotb>  (1) 
0.18105195314905365

>  <r_i_glide_esite>  (1) 
0

>  <r_i_glide_evdw>  (1) 
-23.40323736971915

>  <r_i_glide_gscore>  (1) 
-2.9503206347361326

>  <r_i_glide_gscore_strain>  (1) 
0

>  <r_i_glide_hbond>  (1) 
0

>  <r_i_glide_ligand_efficiency>  (1) 
-0.082261832728431558

>  <r_i_glide_ligand_efficiency_ln>  (1) 
-0.63204042954156514

>  <r_i_glide_ligand_efficiency_sa>  (1) 
-0.26908390965234164

>  <r_i_glide_lipo>  (1) 
-1.4555015836525427

>  <r_i_glide_metal>  (1) 
-0

>  <r_i_glide_rewards>  (1) 
-0.18662386363636538

>  <r_lp_Energy>  (1) 
56.449574999999996

>  <s_epik_cmdline>  (1) 
J2VwaWtfcHl0aG9uJywgJy1waHQnLCAnMS4wJywgJy1waCcsICc3LjQnLCAnLXRuJywgJzgnLCAnLW1hJywgJzUwMCcsICctaW1hZScsICc8aW5maWxlLm1hZT4nLCAnLW9tYWUnLCAnPG91dGZpbGUubWFlPic=

>  <s_epik_input>  (1) 
TzFbQ0gyXVtDSF09W0NIXWMoYzEyKWMzYyhbY0hdYzJbQ0gzXSlbQ0BIXShbQ0gzXSlOKFtDSDJdMylbQ0BASF0oW0NIMl1bQ0hdNClbQ0BASF0oW0NIMl01KVtDQEhdNUMoXEM9NFtDQEhdKEYpW0NIMl1DNjdbQ0gyXVtDSDJdNyk9W0NIXVxbQ0hdPUM9QzZbQ0gyXVtPSF0=

>  <s_glide_docking_method>  (1) 
confgen

>  <s_i_glide_gridfile>  (1) 
gpcr_drd2_6luq_protein_autoprepared_prepared

>  <s_lp_Force_Field>  (1) 
S-OPLS

>  <s_lp_Variant>  (1) 
DiffSBDD_56_num_sample_100-2

>  <s_m_source_file>  (1) 
generated__ligand_DiffSBDD_2026-05-06_prepared.sdf

>  <GenAI_Model>  (1) 
DiffSBDD

>  <Protein>  (1) 
generic_title2

$$$$
DiffSBDD_76_num_sample_100
     RDKit          3D

  0  0  0  0  0  0  0  0  0  0999 V3000
M  V30 BEGIN CTAB
M  V30 COUNTS 78 81 0 0 1
M  V30 BEGIN ATOM
M  V30 1 C 5.335599 5.369408 -14.593219 0
M  V30 2 C 8.948031 5.543015 -18.159115 0
M  V30 3 C 7.016619 7.548729 -12.136337 0
M  V30 4 N 6.498162 5.820290 -13.827504 0 CFG=2 CHG=1
M  V30 5 C 10.163409 5.379995 -18.885103 0
M  V30 6 C 11.643109 8.020381 -4.291661 0
M  V30 7 C 11.835782 9.090056 -5.069763 0
M  V30 8 C 10.414167 7.617799 -8.218791 0 CFG=1
M  V30 9 C 6.601265 5.881403 -16.697204 0
M  V30 10 N 10.429922 7.382781 -10.817521 0 CFG=1 CHG=1
M  V30 11 C 10.736072 6.532719 -12.007137 0
M  V30 12 C 7.777220 5.540785 -16.000201 0
M  V30 13 C 11.865006 9.024739 -6.583632 0
M  V30 14 C 10.179503 5.027230 -16.080115 0
M  V30 15 C 6.660963 6.030594 -18.088996 0
M  V30 16 C 9.834780 5.339545 -9.338876 0
M  V30 17 C 5.295569 6.089770 -15.956987 0
M  V30 18 C 9.139180 8.105435 -10.857458 0
M  V30 19 N 7.789662 5.866791 -18.799466 0
M  V30 20 O 12.032268 6.969283 -12.292208 0
M  V30 21 O 12.815625 4.985109 -20.178521 0
M  V30 22 C 11.606328 7.608069 -7.206222 0 CFG=1
M  V30 23 C 11.379650 5.045214 -18.203684 0
M  V30 24 C 8.343625 8.318523 -12.162835 0
M  V30 25 N 8.638309 8.501886 -6.691755 0 CHG=1
M  V30 26 C 10.633958 6.697691 -9.476912 0 CFG=2
M  V30 27 O 10.153486 5.551453 -20.246874 0 CHG=-1
M  V30 28 C 6.434278 7.268047 -13.514851 0
M  V30 29 C 8.976996 5.364938 -16.738501 0
M  V30 30 C 7.756961 5.374774 -14.475149 0
M  V30 31 C 9.070422 7.341362 -7.469408 0
M  V30 32 C 11.435096 6.707579 -4.845794 0
M  V30 33 C 11.434713 6.496911 -6.169268 0
M  V30 34 C 12.690927 4.874231 -18.959751 0
M  V30 35 C 11.365860 4.871496 -16.802880 0
M  V30 36 C 13.915469 4.545650 -18.105120 0
M  V30 37 H 5.437399 4.291613 -14.691672 0
M  V30 38 H 4.433413 5.514496 -14.010056 0
M  V30 39 H 7.114582 6.605455 -11.595164 0
M  V30 40 H 6.295349 8.131839 -11.559680 0
M  V30 41 H 11.647273 8.144543 -3.220441 0
M  V30 42 H 11.993725 10.060239 -4.620790 0
M  V30 43 H 10.389378 8.634026 -8.605194 0
M  V30 44 H 10.192905 6.729570 -12.910584 0
M  V30 45 H 10.658335 5.456596 -11.891943 0
M  V30 46 H 12.850345 9.370687 -6.897418 0
M  V30 47 H 11.157104 9.769138 -6.937085 0
M  V30 48 H 10.196363 4.890026 -15.011729 0
M  V30 49 H 5.775803 6.292490 -18.650792 0
M  V30 50 H 10.072145 4.853831 -8.392335 0
M  V30 51 H 8.752160 5.444221 -9.378402 0
M  V30 52 H 10.047807 4.594051 -10.099207 0
M  V30 53 H 5.147865 7.162552 -15.831144 0
M  V30 54 H 4.455755 5.769312 -16.571252 0
M  V30 55 H 8.634836 7.371329 -10.291768 0
M  V30 56 H 9.129653 9.008286 -10.254988 0
M  V30 57 H 12.259239 6.693624 -13.171193 0
M  V30 58 H 12.528375 7.369739 -7.735265 0
M  V30 59 H 8.093982 9.369269 -12.224379 0
M  V30 60 H 8.875669 8.164949 -13.087894 0
M  V30 61 H 7.707876 8.286141 -6.346097 0
M  V30 62 H 9.277599 8.655473 -5.925833 0
M  V30 63 H 11.707745 6.569306 -9.491717 0
M  V30 64 H 5.388193 7.577867 -13.479985 0
M  V30 65 H 6.898115 7.861275 -14.303797 0
M  V30 66 H 8.577201 5.923113 -14.026247 0
M  V30 67 H 7.910293 4.318955 -14.249449 0
M  V30 68 H 8.270095 7.026536 -8.117419 0
M  V30 69 H 9.099528 6.486355 -6.797568 0
M  V30 70 H 11.296100 5.868313 -4.178452 0
M  V30 71 H 11.294570 5.496659 -6.549767 0
M  V30 72 H 12.271268 4.616050 -16.275644 0
M  V30 73 H 14.097236 5.337686 -17.378712 0
M  V30 74 H 13.778475 3.598894 -17.583279 0
M  V30 75 H 14.798203 4.459970 -18.737961 0
M  V30 76 H 8.584684 9.316382 -7.284463 0
M  V30 77 H 6.441783 5.341881 -12.939366 0
M  V30 78 H 11.133652 8.106399 -10.868634 0
M  V30 END ATOM
M  V30 BEGIN BOND
M  V30 1 1 4 1
M  V30 2 2 5 2
M  V30 3 2 7 6
M  V30 4 1 11 10
M  V30 5 2 12 9
M  V30 6 1 13 7
M  V30 7 1 15 9
M  V30 8 1 17 1
M  V30 9 1 17 9
M  V30 10 1 18 10
M  V30 11 1 19 2
M  V30 12 2 19 15
M  V30 13 1 20 11
M  V30 14 1 22 8
M  V30 15 1 22 13
M  V30 16 1 23 5
M  V30 17 1 24 3
M  V30 18 1 24 18
M  V30 19 1 26 8
M  V30 20 1 26 10
M  V30 21 1 26 16
M  V30 22 1 27 5
M  V30 23 1 28 3
M  V30 24 1 28 4
M  V30 25 1 29 2
M  V30 26 1 29 12
M  V30 27 2 29 14
M  V30 28 1 30 4
M  V30 29 1 30 12
M  V30 30 1 31 8
M  V30 31 1 31 25
M  V30 32 1 32 6
M  V30 33 1 33 22
M  V30 34 2 33 32
M  V30 35 2 34 21
M  V30 36 1 34 23
M  V30 37 1 35 14
M  V30 38 2 35 23
M  V30 39 1 36 34
M  V30 40 1 37 1
M  V30 41 1 38 1
M  V30 42 1 39 3
M  V30 43 1 40 3
M  V30 44 1 41 6
M  V30 45 1 42 7
M  V30 46 1 8 43 CFG=3
M  V30 47 1 44 11
M  V30 48 1 45 11
M  V30 49 1 46 13
M  V30 50 1 47 13
M  V30 51 1 48 14
M  V30 52 1 49 15
M  V30 53 1 50 16
M  V30 54 1 51 16
M  V30 55 1 52 16
M  V30 56 1 53 17
M  V30 57 1 54 17
M  V30 58 1 55 18
M  V30 59 1 56 18
M  V30 60 1 57 20
M  V30 61 1 22 58 CFG=3
M  V30 62 1 59 24
M  V30 63 1 60 24
M  V30 64 1 61 25
M  V30 65 1 62 25
M  V30 66 1 26 63 CFG=3
M  V30 67 1 64 28
M  V30 68 1 65 28
M  V30 69 1 66 30
M  V30 70 1 67 30
M  V30 71 1 68 31
M  V30 72 1 69 31
M  V30 73 1 70 32
M  V30 74 1 71 33
M  V30 75 1 72 35
M  V30 76 1 73 36
M  V30 77 1 74 36
M  V30 78 1 75 36
M  V30 79 1 76 25
M  V30 80 1 4 77 CFG=1
M  V30 81 1 10 78 CFG=1
M  V30 END BOND
M  V30 END CTAB
M  END
>  <i_epik_Tot_Q>  (1) 
2

>  <i_epik_Tot_abs_Q>  (1) 
4

>  <i_i_glide_confnum>  (1) 
1883

>  <i_i_glide_lignum>  (1) 
155

>  <i_i_glide_posenum>  (1) 
214

>  <i_i_glide_rotatable_bonds>  (1) 
12

>  <i_lp_mmshare_version>  (1) 
72125

>  <i_m_source_file_index>  (1) 
77

>  <i_f3d_flags>  (1) 
0

>  <num_sample>  (1) 
100

>  <b_lp_Chiralities_Consistent>  (1) 
1

>  <r_epik_Charging_Adjusted_Penalty>  (1) 
2.7385366295040585

>  <r_epik_Ionization_Penalty>  (1) 
1.4403839023663505

>  <r_epik_Ionization_Penalty_Charging>  (1) 
1.4088334024277234

>  <r_epik_Ionization_Penalty_Neutral>  (1) 
0.03155049993862722

>  <r_epik_State_Penalty>  (1) 
1.3297032270763354

>  <r_glide_ring_energy>  (1) 
0.68305203791256597

>  <r_i_docking_score>  (1) 
-2.8721666080712294

>  <r_i_glide_ecoul>  (1) 
-7.5362142412282846

>  <r_i_glide_eff_state_penalty>  (1) 
1.3297032270763354

>  <r_i_glide_einternal>  (1) 
21.085574405995438

>  <r_i_glide_emodel>  (1) 
-20.397905899713184

>  <r_i_glide_emodel_strain>  (1) 
5.9535184177557312

>  <r_i_glide_energy>  (1) 
-23.640914420845242

>  <r_i_glide_erotb>  (1) 
0.66625950385389887

>  <r_i_glide_esite>  (1) 
-0.093283306400803803

>  <r_i_glide_evdw>  (1) 
-16.104700179616959

>  <r_i_glide_gscore>  (1) 
-4.2018698351475647

>  <r_i_glide_gscore_strain>  (1) 
0.4883796044389328

>  <r_i_glide_hbond>  (1) 
-0.10878286312357546

>  <r_i_glide_ligand_efficiency>  (1) 
-0.079782405779756371

>  <r_i_glide_ligand_efficiency_ln>  (1) 
-0.62662915690682752

>  <r_i_glide_ligand_efficiency_sa>  (1) 
-0.26343569962654578

>  <r_i_glide_lipo>  (1) 
-2.1148852341970446

>  <r_i_glide_metal>  (1) 
-0

>  <r_i_glide_rewards>  (1) 
-1.1038903945538814

>  <r_lp_Energy>  (1) 
77.906815999999992

>  <r_lp_tautomer_probability>  (1) 
0.99995000000000001

>  <s_epik_Chemistry_Notes>  (1) 
This compound contains an acetal/aminal-like group ( X-CH(R)-Y where X, Y are N, S, or O) that may be acid/base labile, releasing an aldehyde.

>  <s_epik_cmdline>  (1) 
J2VwaWtfcHl0aG9uJywgJy1waHQnLCAnMS4wJywgJy1waCcsICc3LjQnLCAnLXRuJywgJzgnLCAnLW1hJywgJzUwMCcsICctaW1hZScsICc8aW5maWxlLm1hZT4nLCAnLW9tYWUnLCAnPG91dGZpbGUubWFlPic=

>  <s_epik_input>  (1) 
Tz1DKFtDSDNdKWMoYzFbT0hdKVtjSF1bY0hdYyhjMTIpYzNjKFtjSF1uMilbQ0gyXVtDSDJdTihbQ0gyXTMpW0NIMl1bQ0gyXVtDSDJdW0NIMl1OKFtDSDJdW09IXSlbQ0BIXShbQ0gzXSlbQ0BASF0oW0NIMl1bTkgyXSlbQ0BIXTRbQ0gyXVtDSF09W0NIXVtDSF09W0NIXTQ=

>  <s_glide_docking_method>  (1) 
confgen

>  <s_i_glide_gridfile>  (1) 
gpcr_drd2_6luq_protein_autoprepared_prepared

>  <s_lp_Force_Field>  (1) 
S-OPLS

>  <s_lp_Variant>  (1) 
DiffSBDD_76_num_sample_100-4

>  <s_m_source_file>  (1) 
generated__ligand_DiffSBDD_2026-05-06_prepared.sdf

>  <GenAI_Model>  (1) 
DiffSBDD

>  <Protein>  (1) 
generic_title2

$$$$
DiffSBDD_42_num_sample_100
     RDKit          3D

  0  0  0  0  0  0  0  0  0  0999 V3000
M  V30 BEGIN CTAB
M  V30 COUNTS 44 45 0 0 1
M  V30 BEGIN ATOM
M  V30 1 C 9.026860 5.737898 -9.927530 0 CFG=2
M  V30 2 O 10.223740 7.231780 -11.406142 0
M  V30 3 N 6.289867 4.984162 -11.440329 0
M  V30 4 C 6.698245 1.039008 -12.940859 0
M  V30 5 C 4.678041 8.121078 -11.317828 0
M  V30 6 O 5.034866 6.766965 -11.091991 0
M  V30 7 C 7.007211 2.222340 -13.819178 0 CFG=1
M  V30 8 N 10.349379 7.702888 -9.123075 0
M  V30 9 C 8.556651 4.763403 -12.108592 0 CFG=2
M  V30 10 C 9.258788 6.207031 -7.489946 0
M  V30 11 C 6.676406 3.649800 -13.377524 0
M  V30 12 C 9.789441 5.110412 -14.076055 0
M  V30 13 O 9.211419 4.676153 -10.875005 0
M  V30 14 C 9.931094 6.969333 -10.241192 0
M  V30 15 C 5.846992 6.188836 -11.962053 0
M  V30 16 N 7.209779 4.137454 -12.073133 0
M  V30 17 C 10.544396 8.285885 -6.757507 0
M  V30 18 O 6.154683 6.674541 -13.054109 0
M  V30 19 C 9.279264 5.124078 -8.552228 0
M  V30 20 N 8.054892 1.533414 -13.091818 0
M  V30 21 O 9.345149 4.187922 -13.091267 0
M  V30 22 C 10.073344 7.418610 -7.904522 0
M  V30 23 H 8.002592 6.087595 -9.954334 0
M  V30 24 H 5.956546 4.723123 -10.522021 0
M  V30 25 H 6.204151 1.212927 -11.988007 0
M  V30 26 H 6.467160 0.085820 -13.412710 0
M  V30 27 H 3.841308 8.422427 -10.691766 0
M  V30 28 H 5.548047 8.730932 -11.090903 0
M  V30 29 H 4.395703 8.317599 -12.350692 0
M  V30 30 H 6.963937 2.055454 -14.893693 0
M  V30 31 H 8.398897 5.812329 -12.360170 0
M  V30 32 H 9.638710 5.811940 -6.547616 0
M  V30 33 H 8.234820 6.526083 -7.306066 0
M  V30 34 H 5.587276 3.715481 -13.361878 0
M  V30 35 H 6.993976 4.331934 -14.166029 0
M  V30 36 H 10.234155 4.569302 -14.910693 0
M  V30 37 H 8.972159 5.713280 -14.476170 0
M  V30 38 H 10.547619 5.770550 -13.657941 0
M  V30 39 H 9.693071 8.607728 -6.156634 0
M  V30 40 H 11.230548 7.725462 -6.121546 0
M  V30 41 H 11.060829 9.173096 -7.126299 0
M  V30 42 H 8.515789 4.379627 -8.325470 0
M  V30 43 H 10.235964 4.604599 -8.541864 0
M  V30 44 H 8.473936 2.020148 -12.307628 0
M  V30 END ATOM
M  V30 BEGIN BOND
M  V30 1 1 6 5
M  V30 2 1 7 4
M  V30 3 1 11 7
M  V30 4 1 13 1
M  V30 5 1 13 9
M  V30 6 1 14 1
M  V30 7 2 14 2
M  V30 8 1 14 8
M  V30 9 1 15 3
M  V30 10 1 15 6
M  V30 11 1 16 3
M  V30 12 1 16 9
M  V30 13 1 16 11
M  V30 14 2 18 15
M  V30 15 1 19 1
M  V30 16 1 19 10
M  V30 17 1 20 4
M  V30 18 1 20 7
M  V30 19 1 21 9
M  V30 20 1 21 12
M  V30 21 2 22 8
M  V30 22 1 22 10
M  V30 23 1 22 17
M  V30 24 1 1 23 CFG=1
M  V30 25 1 24 3
M  V30 26 1 25 4
M  V30 27 1 26 4
M  V30 28 1 27 5
M  V30 29 1 28 5
M  V30 30 1 29 5
M  V30 31 1 7 30 CFG=3
M  V30 32 1 9 31 CFG=3
M  V30 33 1 32 10
M  V30 34 1 33 10
M  V30 35 1 34 11
M  V30 36 1 35 11
M  V30 37 1 36 12
M  V30 38 1 37 12
M  V30 39 1 38 12
M  V30 40 1 39 17
M  V30 41 1 40 17
M  V30 42 1 41 17
M  V30 43 1 42 19
M  V30 44 1 43 19
M  V30 45 1 44 20
M  V30 END BOND
M  V30 END CTAB
M  END
>  <i_epik_Tot_Q>  (1) 
0

>  <i_epik_Tot_abs_Q>  (1) 
0

>  <i_i_glide_confnum>  (1) 
323

>  <i_i_glide_lignum>  (1) 
74

>  <i_i_glide_posenum>  (1) 
272

>  <i_i_glide_rotatable_bonds>  (1) 
9

>  <i_lp_mmshare_version>  (1) 
72125

>  <i_m_source_file_index>  (1) 
43

>  <i_f3d_flags>  (1) 
0

>  <num_sample>  (1) 
100

>  <b_lp_Chiralities_Consistent>  (1) 
1

>  <r_epik_Charging_Adjusted_Penalty>  (1) 
0.73434514420425445

>  <r_epik_Ionization_Penalty>  (1) 
0.73524222016862195

>  <r_epik_Ionization_Penalty_Charging>  (1) 
0

>  <r_epik_Ionization_Penalty_Neutral>  (1) 
0.73524222016862195

>  <r_epik_State_Penalty>  (1) 
0.73434514420425445

>  <r_glide_ring_energy>  (1) 
0.0014600404396934196

>  <r_i_docking_score>  (1) 
-2.8675022543298616

>  <r_i_glide_ecoul>  (1) 
-2.2351008886013157

>  <r_i_glide_eff_state_penalty>  (1) 
0.73434514420425445

>  <r_i_glide_einternal>  (1) 
14.893062776032858

>  <r_i_glide_emodel>  (1) 
-32.793454374386656

>  <r_i_glide_emodel_strain>  (1) 
0.99592480041360076

>  <r_i_glide_energy>  (1) 
-32.894678727608202

>  <r_i_glide_erotb>  (1) 
1.1286281717494191

>  <r_i_glide_esite>  (1) 
-0.22897912404596529

>  <r_i_glide_evdw>  (1) 
-30.659577839006886

>  <r_i_glide_gscore>  (1) 
-3.6018473985341162

>  <r_i_glide_gscore_strain>  (1) 
0

>  <r_i_glide_hbond>  (1) 
0

>  <r_i_glide_ligand_efficiency>  (1) 
-0.13034101156044825

>  <r_i_glide_ligand_efficiency_ln>  (1) 
-0.70092214564430722

>  <r_i_glide_ligand_efficiency_sa>  (1) 
-0.36522064078978456

>  <r_i_glide_lipo>  (1) 
-0.8211588973914975

>  <r_i_glide_metal>  (1) 
-0

>  <r_i_glide_rewards>  (1) 
-1.8120935236055302

>  <r_lp_Energy>  (1) 
12.752139999999999

>  <s_epik_Chemistry_Notes>  (1) 
This compound has an ester and may undergo hydrolysis at high or low pH. This compound has an imine and may undergo hydrolysis. This compound contains an acetal/aminal-like group ( X-CH(R)-Y where X, Y are N, S, or O) that may be acid/base labile, releasing an aldehyde.

>  <s_epik_cmdline>  (1) 
J2VwaWtfcHl0aG9uJywgJy1waHQnLCAnMS4wJywgJy1waCcsICc3LjQnLCAnLXRuJywgJzgnLCAnLW1hJywgJzUwMCcsICctaW1hZScsICc8aW5maWxlLm1hZT4nLCAnLW9tYWUnLCAnPG91dGZpbGUubWFlPic=

>  <s_epik_input>  (1) 
W0NIMl0xW0NIMl1DKFtDSDNdKT1OQyg9TylbQ0BIXTFPW0NAQEhdKE9bQ0gzXSlOKFtOSF1DKD1PKU9bQ0gzXSlbQ0gyXVtDQEBIXTJbQ0gyXVtOSF0y

>  <s_glide_docking_method>  (1) 
confgen

>  <s_i_glide_gridfile>  (1) 
gpcr_drd2_6luq_protein_autoprepared_prepared

>  <s_lp_Force_Field>  (1) 
S-OPLS

>  <s_lp_Variant>  (1) 
DiffSBDD_42_num_sample_100-2

>  <s_m_source_file>  (1) 
generated__ligand_DiffSBDD_2026-05-06_prepared.sdf

>  <GenAI_Model>  (1) 
DiffSBDD

>  <Protein>  (1) 
generic_title2

$$$$
DiffSBDD_80_num_sample_100
     RDKit          3D

  0  0  0  0  0  0  0  0  0  0999 V3000
M  V30 BEGIN CTAB
M  V30 COUNTS 57 60 0 0 1
M  V30 BEGIN ATOM
M  V30 1 C 7.426260 -3.731806 -19.504858 0
M  V30 2 C 7.934646 0.897598 -19.674205 0
M  V30 3 O 3.907689 -4.230160 -20.296105 0
M  V30 4 C 6.453757 3.825692 -21.836316 0
M  V30 5 C 4.259293 -3.816507 -19.192185 0
M  V30 6 C 7.048988 3.231446 -19.093895 0
M  V30 7 C 5.110495 -2.551487 -19.047483 0
M  V30 8 C 3.867016 -4.540307 -17.914283 0
M  V30 9 C 7.764489 -0.703177 -17.954123 0
M  V30 10 C 7.036186 -1.202346 -20.232226 0 CFG=2
M  V30 11 C 6.914567 4.670572 -19.552621 0 CFG=1
M  V30 12 O 3.631590 9.478142 -21.200153 0 CHG=-1
M  V30 13 C 5.788523 6.089489 -21.212058 0
M  V30 14 C 6.187227 -0.493616 -21.303790 0
M  V30 15 C 6.372093 4.823483 -20.939523 0
M  V30 16 C 4.703209 7.884175 -22.640201 0
M  V30 17 C 6.962728 2.494556 -21.477742 0
M  V30 18 F 3.434589 7.673231 -23.004291 0
M  V30 19 C 7.258050 2.192220 -20.154322 0
M  V30 20 C 7.772627 -3.967707 -18.024484 0
M  V30 21 C 5.351009 6.507922 -22.416020 0
M  V30 22 C 5.674570 6.899001 -20.070176 0
M  V30 23 C 6.420499 -2.598795 -19.874473 0 CFG=1
M  V30 24 O 7.036588 2.973238 -17.891138 0
M  V30 25 S 6.182852 6.101253 -18.559502 0
M  V30 26 N 7.113933 -0.200270 -19.158504 0
M  V30 27 F 5.299306 8.477585 -23.676410 0
M  V30 28 C 7.154211 1.515119 -22.559843 0
M  V30 29 C 6.891603 0.187964 -22.469139 0
M  V30 30 C 5.209234 8.167498 -20.112089 0
M  V30 31 C 4.781834 8.885027 -21.404857 0 CFG=2
M  V30 32 H 7.004044 -4.669444 -19.868599 0
M  V30 33 H 8.348591 -3.610058 -20.072926 0
M  V30 34 H 8.631815 0.560751 -20.442161 0
M  V30 35 H 8.622523 1.226558 -18.892509 0
M  V30 36 H 6.081613 3.979117 -22.836271 0
M  V30 37 H 4.495352 -1.717158 -19.383012 0
M  V30 38 H 5.316165 -2.369095 -17.994008 0
M  V30 39 H 3.831135 -3.830270 -17.091854 0
M  V30 40 H 4.594968 -5.314259 -17.670768 0
M  V30 41 H 2.889020 -5.010035 -18.015963 0
M  V30 42 H 7.167174 -1.475760 -17.476340 0
M  V30 43 H 7.865780 0.094008 -17.215893 0
M  V30 44 H 8.760686 -1.093215 -18.168701 0
M  V30 45 H 8.027865 -1.404206 -20.640093 0
M  V30 46 H 7.957241 4.970085 -19.659019 0
M  V30 47 H 5.533026 -1.205073 -21.806831 0
M  V30 48 H 5.459121 0.191147 -20.858668 0
M  V30 49 H 8.221527 -4.953615 -17.895715 0
M  V30 50 H 6.891136 -3.935492 -17.385235 0
M  V30 51 H 8.500875 -3.254603 -17.644613 0
M  V30 52 H 5.437158 5.872125 -23.281617 0
M  V30 53 H 6.109456 -2.968858 -20.851348 0
M  V30 54 H 7.546444 1.880687 -23.497629 0
M  V30 55 H 7.093051 -0.440815 -23.324275 0
M  V30 56 H 5.140347 8.739337 -19.198881 0
M  V30 57 H 5.668388 9.492478 -21.593937 0
M  V30 END ATOM
M  V30 BEGIN BOND
M  V30 1 2 5 3
M  V30 2 1 7 5
M  V30 3 1 8 5
M  V30 4 1 11 6
M  V30 5 1 14 10
M  V30 6 2 15 4
M  V30 7 1 15 11
M  V30 8 1 15 13
M  V30 9 1 17 4
M  V30 10 1 18 16
M  V30 11 1 19 2
M  V30 12 1 19 6
M  V30 13 2 19 17
M  V30 14 1 20 1
M  V30 15 2 21 13
M  V30 16 1 21 16
M  V30 17 1 22 13
M  V30 18 1 23 1
M  V30 19 1 23 7
M  V30 20 1 23 10
M  V30 21 2 24 6
M  V30 22 1 25 11
M  V30 23 1 25 22
M  V30 24 1 26 2
M  V30 25 1 26 9
M  V30 26 1 26 10
M  V30 27 1 27 16
M  V30 28 1 28 17
M  V30 29 1 29 14
M  V30 30 2 29 28
M  V30 31 2 30 22
M  V30 32 1 31 12
M  V30 33 1 31 16
M  V30 34 1 31 30
M  V30 35 1 32 1
M  V30 36 1 33 1
M  V30 37 1 34 2
M  V30 38 1 35 2
M  V30 39 1 36 4
M  V30 40 1 37 7
M  V30 41 1 38 7
M  V30 42 1 39 8
M  V30 43 1 40 8
M  V30 44 1 41 8
M  V30 45 1 42 9
M  V30 46 1 43 9
M  V30 47 1 44 9
M  V30 48 1 10 45 CFG=3
M  V30 49 1 11 46 CFG=3
M  V30 50 1 47 14
M  V30 51 1 48 14
M  V30 52 1 49 20
M  V30 53 1 50 20
M  V30 54 1 51 20
M  V30 55 1 52 21
M  V30 56 1 23 53 CFG=3
M  V30 57 1 54 28
M  V30 58 1 55 29
M  V30 59 1 56 30
M  V30 60 1 31 57 CFG=3
M  V30 END BOND
M  V30 END CTAB
M  END
>  <i_epik_Tot_Q>  (1) 
-1

>  <i_epik_Tot_abs_Q>  (1) 
1

>  <i_i_glide_confnum>  (1) 
4

>  <i_i_glide_lignum>  (1) 
164

>  <i_i_glide_posenum>  (1) 
21

>  <i_i_glide_rotatable_bonds>  (1) 
4

>  <i_lp_mmshare_version>  (1) 
72125

>  <i_m_source_file_index>  (1) 
81

>  <i_f3d_flags>  (1) 
0

>  <num_sample>  (1) 
100

>  <b_lp_Chiralities_Consistent>  (1) 
1

>  <r_epik_Charging_Adjusted_Penalty>  (1) 
8.7803366933407872e-06

>  <r_epik_Ionization_Penalty>  (1) 
0.00048743314384941063

>  <r_epik_Ionization_Penalty_Charging>  (1) 
8.7803366933407872e-06

>  <r_epik_Ionization_Penalty_Neutral>  (1) 
0.00047865280715606983

>  <r_epik_State_Penalty>  (1) 
-0

>  <r_glide_ring_energy>  (1) 
0

>  <r_i_docking_score>  (1) 
-2.8653400584772495

>  <r_i_glide_ecoul>  (1) 
-1.8698774438816268

>  <r_i_glide_eff_state_penalty>  (1) 
-0

>  <r_i_glide_einternal>  (1) 
3.4538736162472885

>  <r_i_glide_emodel>  (1) 
-30.351231837673136

>  <r_i_glide_emodel_strain>  (1) 
0.0648428788454396

>  <r_i_glide_energy>  (1) 
-28.852148664864352

>  <r_i_glide_erotb>  (1) 
0.20077648214602295

>  <r_i_glide_esite>  (1) 
0

>  <r_i_glide_evdw>  (1) 
-26.982271220982724

>  <r_i_glide_gscore>  (1) 
-2.8653400584772495

>  <r_i_glide_gscore_strain>  (1) 
0

>  <r_i_glide_hbond>  (1) 
0

>  <r_i_glide_ligand_efficiency>  (1) 
-0.092430324467008051

>  <r_i_glide_ligand_efficiency_ln>  (1) 
-0.64622199531357449

>  <r_i_glide_ligand_efficiency_sa>  (1) 
-0.29035883297491794

>  <r_i_glide_lipo>  (1) 
-0.9611540484719312

>  <r_i_glide_metal>  (1) 
-0

>  <r_i_glide_rewards>  (1) 
-0.47536731451996028

>  <r_lp_Energy>  (1) 
51.588003999999998

>  <r_lp_tautomer_probability>  (1) 
1

>  <s_epik_cmdline>  (1) 
J2VwaWtfcHl0aG9uJywgJy1waHQnLCAnMS4wJywgJy1waCcsICc3LjQnLCAnLXRuJywgJzgnLCAnLW1hJywgJzUwMCcsICctaW1hZScsICc8aW5maWxlLm1hZT4nLCAnLW9tYWUnLCAnPG91dGZpbGUubWFlPic=

>  <s_epik_input>  (1) 
Tz1DKFtDSDNdKVtDSDJdW0NAQEhdKFtDSDJdW0NIM10pW0NAQEhdKFtDSDJdL1tDSF09W0NIXVwxKU4oW0NIM10pW0NIMl1DKEMyPU8pPUMxW0NIXT1DKFtDQEhdMjMpQz00QyhTMyk9W0NIXVtDQEhdKFtPSF0pQyhGKShGKVtDSF00

>  <s_glide_docking_method>  (1) 
confgen

>  <s_i_glide_gridfile>  (1) 
gpcr_drd2_6luq_protein_autoprepared_prepared

>  <s_lp_Force_Field>  (1) 
S-OPLS

>  <s_lp_Variant>  (1) 
DiffSBDD_80_num_sample_100-3

>  <s_m_source_file>  (1) 
generated__ligand_DiffSBDD_2026-05-06_prepared.sdf

>  <GenAI_Model>  (1) 
DiffSBDD

>  <Protein>  (1) 
generic_title2

$$$$
DiffSBDD_36_num_sample_100
     RDKit          3D

  0  0  0  0  0  0  0  0  0  0999 V3000
M  V30 BEGIN CTAB
M  V30 COUNTS 101 106 0 0 1
M  V30 BEGIN ATOM
M  V30 1 C 4.305338 -1.178491 -18.937867 0
M  V30 2 O 8.917775 7.519803 -20.793167 0
M  V30 3 C 10.079306 1.986983 -17.711724 0
M  V30 4 C 18.785116 7.448879 -18.393413 0
M  V30 5 C 13.421519 4.720356 -20.729782 0 CFG=1
M  V30 6 O 18.531744 5.584411 -20.588911 0
M  V30 7 C 8.248542 5.255274 -17.914900 0
M  V30 8 C 7.415379 0.838344 -18.019599 0
M  V30 9 C 7.690729 2.267435 -17.532594 0 CFG=1
M  V30 10 C 8.594802 0.073094 -18.532543 0 CFG=1
M  V30 11 C 7.434222 6.872760 -22.430362 0
M  V30 12 C 8.205886 3.831636 -15.813934 0
M  V30 13 C 9.893082 0.871315 -18.732897 0
M  V30 14 C 5.732746 -1.003182 -18.460395 0
M  V30 15 S 14.964201 2.468687 -20.426829 0
M  V30 16 C 6.520979 -2.125317 -18.365172 0
M  V30 17 C 11.664308 7.730172 -22.979826 0
M  V30 18 C 7.897024 -2.217792 -17.862144 0
M  V30 19 C 17.047212 4.009015 -19.516662 0
M  V30 20 C 8.862664 7.329336 -22.171995 0 CFG=2
M  V30 21 O 15.238616 6.412026 -20.482772 0
M  V30 22 C 14.894780 10.033488 -19.447406 0
M  V30 23 C 13.392140 3.215875 -20.578147 0
M  V30 24 C 17.949739 6.195920 -18.291480 0
M  V30 25 C 14.633125 7.485308 -19.779016 0
M  V30 26 C 7.633727 2.435720 -16.017865 0
M  V30 27 O 11.527284 8.969178 -22.291512 0
M  V30 28 C 15.136950 10.022068 -17.932586 0
M  V30 29 C 9.002381 4.160825 -17.100637 0 CFG=2
M  V30 30 C 10.423687 4.674351 -16.739215 0
M  V30 31 S 17.115658 5.769406 -16.905571 0
M  V30 32 O 9.728433 6.321176 -22.603042 0
M  V30 33 C 15.381744 8.768648 -20.167675 0
M  V30 34 C 11.838120 5.221267 -22.728514 0
M  V30 35 C 12.265544 2.492293 -20.540847 0
M  V30 36 N 8.961455 2.908251 -17.890674 0
M  V30 37 C 8.012523 6.640087 -20.122630 0 CFG=1
M  V30 38 C 14.783185 5.118870 -20.105670 0 CFG=2
M  V30 39 C 17.905486 5.290248 -19.571879 0
M  V30 40 O 12.859445 8.326042 -22.460868 0
M  V30 41 C 13.291925 5.105794 -22.225272 0
M  V30 42 O 9.836507 5.109667 -19.738433 0
M  V30 43 C 15.841921 4.048641 -20.468188 0 CFG=2
M  V30 44 C 8.802043 -1.239138 -17.889187 0
M  V30 45 C 6.160079 0.352766 -18.041825 0
M  V30 46 C 11.109578 6.503185 -22.288647 0 CFG=1
M  V30 47 C 7.174341 5.983820 -21.230463 0
M  V30 48 C 8.804882 5.618646 -19.301948 0
M  V30 49 H 3.932015 -0.261207 -19.393241 0
M  V30 50 H 4.235790 -1.972977 -19.681052 0
M  V30 51 H 3.654635 -1.431642 -18.100686 0
M  V30 52 H 11.024035 2.489026 -17.920508 0
M  V30 53 H 10.134434 1.597983 -16.696038 0
M  V30 54 H 19.839607 7.182293 -18.431773 0
M  V30 55 H 18.541640 7.997261 -19.302983 0
M  V30 56 H 12.620359 5.173432 -20.145326 0
M  V30 57 H 8.211962 6.168956 -17.326008 0
M  V30 58 H 6.892601 2.873296 -17.961502 0
M  V30 59 H 8.304100 -0.202242 -19.548840 0
M  V30 60 H 6.779234 7.745326 -22.413321 0
M  V30 61 H 7.338354 6.369966 -23.393206 0
M  V30 62 H 8.816852 3.864553 -14.911928 0
M  V30 63 H 7.399060 4.549418 -15.662464 0
M  V30 64 H 9.864468 1.317785 -19.727124 0
M  V30 65 H 10.763747 0.215471 -18.734127 0
M  V30 66 H 6.052911 -3.060180 -18.636913 0
M  V30 67 H 11.544534 7.794460 -24.052334 0
M  V30 68 H 8.203374 -3.161285 -17.433859 0
M  V30 69 H 16.682324 3.748527 -18.528755 0
M  V30 70 H 17.697292 3.185499 -19.811674 0
M  V30 71 H 9.080519 8.263015 -22.692275 0
M  V30 72 H 15.398434 10.899528 -19.878835 0
M  V30 73 H 13.834931 10.172729 -19.643252 0
M  V30 74 H 13.573718 7.558042 -20.026283 0
M  V30 75 H 14.712852 7.316840 -18.704929 0
M  V30 76 H 6.627733 2.340294 -15.617538 0
M  V30 77 H 8.250515 1.688450 -15.517763 0
M  V30 78 H 14.829088 10.967785 -17.488171 0
M  V30 79 H 14.557538 9.238099 -17.445723 0
M  V30 80 H 16.190173 9.866203 -17.695270 0
M  V30 81 H 10.366832 5.652923 -16.261715 0
M  V30 82 H 10.942209 4.023302 -16.039625 0
M  V30 83 H 11.073943 4.780242 -17.606523 0
M  V30 84 H 18.618675 8.109371 -17.541505 0
M  V30 85 H 16.446134 8.639086 -19.981115 0
M  V30 86 H 15.282564 8.917709 -21.243473 0
M  V30 87 H 11.833558 5.177676 -23.817181 0
M  V30 88 H 11.267273 4.353921 -22.403274 0
M  V30 89 H 11.297409 2.963549 -20.625182 0
M  V30 90 H 12.297423 1.419239 -20.423600 0
M  V30 91 H 7.382428 7.237647 -19.463198 0
M  V30 92 H 14.664972 5.084670 -19.020398 0
M  V30 93 H 13.811986 6.038464 -22.428718 0
M  V30 94 H 13.816672 4.365895 -22.831601 0
M  V30 95 H 7.208472 4.965773 -18.059479 0
M  V30 96 H 16.174408 4.203505 -21.495836 0
M  V30 97 H 9.785197 -1.422858 -17.479446 0
M  V30 98 H 5.380409 1.024267 -17.720889 0
M  V30 99 H 11.228159 6.641021 -21.215058 0
M  V30 100 H 7.516021 4.969801 -21.444364 0
M  V30 101 H 6.115282 5.935337 -20.975852 0
M  V30 END ATOM
M  V30 BEGIN BOND
M  V30 1 1 9 8
M  V30 2 1 10 8
M  V30 3 1 13 3
M  V30 4 1 13 10
M  V30 5 1 14 1
M  V30 6 2 16 14
M  V30 7 1 18 16
M  V30 8 1 20 2
M  V30 9 1 20 11
M  V30 10 1 23 5
M  V30 11 1 23 15
M  V30 12 1 24 4
M  V30 13 1 25 21
M  V30 14 1 26 9
M  V30 15 1 26 12
M  V30 16 1 27 17
M  V30 17 1 28 22
M  V30 18 1 29 7 CFG=3
M  V30 19 1 29 12
M  V30 20 1 30 29
M  V30 21 2 31 24
M  V30 22 1 32 20
M  V30 23 1 33 22
M  V30 24 1 33 25
M  V30 25 2 35 23
M  V30 26 1 36 3
M  V30 27 1 36 9
M  V30 28 1 36 29
M  V30 29 1 37 2
M  V30 30 1 38 5
M  V30 31 1 38 21
M  V30 32 2 39 6
M  V30 33 1 39 19
M  V30 34 1 39 24
M  V30 35 1 40 17
M  V30 36 1 40 27
M  V30 37 1 41 5
M  V30 38 1 41 34
M  V30 39 1 43 15
M  V30 40 1 43 19
M  V30 41 1 43 38
M  V30 42 1 44 10
M  V30 43 2 44 18
M  V30 44 2 45 8
M  V30 45 1 45 14
M  V30 46 1 46 17
M  V30 47 1 46 32
M  V30 48 1 46 34
M  V30 49 1 47 11
M  V30 50 1 47 37
M  V30 51 1 48 7
M  V30 52 1 48 37
M  V30 53 2 48 42
M  V30 54 1 49 1
M  V30 55 1 50 1
M  V30 56 1 51 1
M  V30 57 1 52 3
M  V30 58 1 53 3
M  V30 59 1 54 4
M  V30 60 1 55 4
M  V30 61 1 5 56 CFG=1
M  V30 62 1 57 7
M  V30 63 1 9 58 CFG=3
M  V30 64 1 10 59 CFG=3
M  V30 65 1 60 11
M  V30 66 1 61 11
M  V30 67 1 62 12
M  V30 68 1 63 12
M  V30 69 1 64 13
M  V30 70 1 65 13
M  V30 71 1 66 16
M  V30 72 1 67 17
M  V30 73 1 68 18
M  V30 74 1 69 19
M  V30 75 1 70 19
M  V30 76 1 20 71 CFG=3
M  V30 77 1 72 22
M  V30 78 1 73 22
M  V30 79 1 74 25
M  V30 80 1 75 25
M  V30 81 1 76 26
M  V30 82 1 77 26
M  V30 83 1 78 28
M  V30 84 1 79 28
M  V30 85 1 80 28
M  V30 86 1 81 30
M  V30 87 1 82 30
M  V30 88 1 83 30
M  V30 89 1 84 4
M  V30 90 1 85 33
M  V30 91 1 86 33
M  V30 92 1 87 34
M  V30 93 1 88 34
M  V30 94 1 89 35
M  V30 95 1 90 35
M  V30 96 1 37 91 CFG=1
M  V30 97 1 38 92 CFG=1
M  V30 98 1 93 41
M  V30 99 1 94 41
M  V30 100 1 95 7
M  V30 101 1 43 96 CFG=3
M  V30 102 1 97 44
M  V30 103 1 98 45
M  V30 104 1 46 99 CFG=1
M  V30 105 1 100 47
M  V30 106 1 101 47
M  V30 END BOND
M  V30 END CTAB
M  END
>  <i_epik_Tot_Q>  (1) 
0

>  <i_epik_Tot_abs_Q>  (1) 
0

>  <i_i_glide_confnum>  (1) 
9396

>  <i_i_glide_lignum>  (1) 
64

>  <i_i_glide_posenum>  (1) 
107

>  <i_i_glide_rotatable_bonds>  (1) 
16

>  <i_lp_mmshare_version>  (1) 
72125

>  <i_m_source_file_index>  (1) 
37

>  <i_f3d_flags>  (1) 
0

>  <num_sample>  (1) 
100

>  <b_lp_Chiralities_Consistent>  (1) 
1

>  <r_epik_Charging_Adjusted_Penalty>  (1) 
0.36853766337093702

>  <r_epik_Ionization_Penalty>  (1) 
0.36853766343244521

>  <r_epik_Ionization_Penalty_Charging>  (1) 
0

>  <r_epik_Ionization_Penalty_Neutral>  (1) 
0.36853766343244521

>  <r_epik_State_Penalty>  (1) 
0.36853766337093702

>  <r_glide_ring_energy>  (1) 
0.90812249233528797

>  <r_i_docking_score>  (1) 
-2.8625222496657812

>  <r_i_glide_ecoul>  (1) 
-0.16466402819835019

>  <r_i_glide_eff_state_penalty>  (1) 
0.36853766337093702

>  <r_i_glide_einternal>  (1) 
8.8480230388047918

>  <r_i_glide_emodel>  (1) 
-41.268097819000118

>  <r_i_glide_emodel_strain>  (1) 
0.08269900421404941

>  <r_i_glide_energy>  (1) 
-36.29865805726832

>  <r_i_glide_erotb>  (1) 
0.43754787897849062

>  <r_i_glide_esite>  (1) 
0

>  <r_i_glide_evdw>  (1) 
-36.133994029069967

>  <r_i_glide_gscore>  (1) 
-3.2310599130367184

>  <r_i_glide_gscore_strain>  (1) 
0

>  <r_i_glide_hbond>  (1) 
0

>  <r_i_glide_ligand_efficiency>  (1) 
-0.059635880201370443

>  <r_i_glide_ligand_efficiency_ln>  (1) 
-0.58764198875305018

>  <r_i_glide_ligand_efficiency_sa>  (1) 
-0.21673117197116146

>  <r_i_glide_lipo>  (1) 
-1.3872730926825818

>  <r_i_glide_metal>  (1) 
-0

>  <r_i_glide_rewards>  (1) 
-0.44993539364937679

>  <r_lp_Energy>  (1) 
26.071289

>  <r_lp_tautomer_probability>  (1) 
0.99994996000200076

>  <s_epik_Chemistry_Notes>  (1) 
This compound contains an acetal/aminal-like group ( X-CH(R)-Y where X, Y are N, S, or O) that may be acid/base labile, releasing an aldehyde.

>  <s_epik_cmdline>  (1) 
J2VwaWtfcHl0aG9uJywgJy1waHQnLCAnMS4wJywgJy1waCcsICc3LjQnLCAnLXRuJywgJzgnLCAnLW1hJywgJzUwMCcsICctaW1hZScsICc8aW5maWxlLm1hZT4nLCAnLW9tYWUnLCAnPG91dGZpbGUubWFlPic=

>  <s_epik_input>  (1) 
W0NIM11DKFtDSF0xKT1bQ0hdW0NIXT1bQ0hdW0NAQEhdMltDSDJdW0NIMl1OKFtDQEhdM0M9MTIpW0NAXShbQ0gzXSkoW0NIMl1bQ0gyXTMpL1tDSF09QyhbT0hdKS9bQ0BIXShbQ0gyXVtDSDJdNClPW0NASF00T1tDQEhdKFtDSF01T081KVtDSDJdW0NIMl1bQ0BIXTZDKD1bQ0gyXSlTW0NASF0oW0NIMl1DKD1PKUMoPVtDSDJdKVtTSF0pW0NASF02T1tDSDJdW0NIMl1bQ0gyXVtDSDNd

>  <s_glide_docking_method>  (1) 
confgen

>  <s_i_glide_gridfile>  (1) 
gpcr_drd2_6luq_protein_autoprepared_prepared

>  <s_lp_Force_Field>  (1) 
S-OPLS

>  <s_lp_Variant>  (1) 
DiffSBDD_36_num_sample_100-1

>  <s_m_source_file>  (1) 
generated__ligand_DiffSBDD_2026-05-06_prepared.sdf

>  <GenAI_Model>  (1) 
DiffSBDD

>  <Protein>  (1) 
generic_title2

$$$$
DiffSBDD_42_num_sample_100
     RDKit          3D

  0  0  0  0  0  0  0  0  0  0999 V3000
M  V30 BEGIN CTAB
M  V30 COUNTS 44 45 0 0 1
M  V30 BEGIN ATOM
M  V30 1 C 8.516141 5.915621 -11.127339 0 CFG=2
M  V30 2 O 9.834985 7.769302 -11.891662 0
M  V30 3 N 8.703733 4.569337 -15.036511 0
M  V30 4 C 6.782159 0.659359 -12.652229 0
M  V30 5 C 9.775361 5.676072 -18.241681 0
M  V30 6 O 9.704725 5.264410 -16.887286 0
M  V30 7 C 6.710519 2.105548 -13.058528 0 CFG=1
M  V30 8 N 10.178729 7.091520 -9.683120 0
M  V30 9 C 7.501281 5.153961 -13.115567 0 CFG=2
M  V30 10 C 8.747969 5.331842 -8.710987 0
M  V30 11 C 7.908377 2.783318 -13.703874 0
M  V30 12 C 5.712467 6.356481 -14.080279 0
M  V30 13 O 8.689059 5.342707 -12.418106 0
M  V30 14 C 9.579500 7.025079 -10.950427 0
M  V30 15 C 8.526326 4.895506 -16.366130 0
M  V30 16 N 7.683831 4.159761 -14.181573 0
M  V30 17 C 10.494996 6.566361 -7.316388 0
M  V30 18 O 7.467864 4.863647 -16.995707 0
M  V30 19 C 8.591884 4.777011 -10.114222 0
M  V30 20 N 6.146382 1.059889 -13.891668 0
M  V30 21 O 7.053222 6.371935 -13.623033 0
M  V30 22 C 9.834831 6.390723 -8.666969 0
M  V30 23 H 7.548718 6.416651 -11.068680 0
M  V30 24 H 9.635375 4.656798 -14.654340 0
M  V30 25 H 7.751264 0.169294 -12.712238 0
M  V30 26 H 6.131657 0.313647 -11.851056 0
M  V30 27 H 10.801264 5.944166 -18.494038 0
M  V30 28 H 9.458725 4.873648 -18.908897 0
M  V30 29 H 9.142649 6.546914 -18.417836 0
M  V30 30 H 6.024075 2.737329 -12.500280 0
M  V30 31 H 6.745237 4.741078 -12.446999 0
M  V30 32 H 8.983178 4.528052 -8.013648 0
M  V30 33 H 7.810946 5.769299 -8.373956 0
M  V30 34 H 8.235004 2.172468 -14.546402 0
M  V30 35 H 8.730191 2.788764 -12.985945 0
M  V30 36 H 5.434840 7.355197 -14.416907 0
M  V30 37 H 5.573854 5.671538 -14.917421 0
M  V30 38 H 5.034865 6.070365 -13.276822 0
M  V30 39 H 9.741000 6.600909 -6.528990 0
M  V30 40 H 11.171645 5.736188 -7.115349 0
M  V30 41 H 11.067058 7.494073 -7.283514 0
M  V30 42 H 7.690298 4.169302 -10.174833 0
M  V30 43 H 9.434886 4.126784 -10.351434 0
M  V30 44 H 6.625492 0.823546 -14.749362 0
M  V30 END ATOM
M  V30 BEGIN BOND
M  V30 1 1 6 5
M  V30 2 1 7 4
M  V30 3 1 11 7
M  V30 4 1 13 1
M  V30 5 1 13 9
M  V30 6 1 14 1
M  V30 7 2 14 2
M  V30 8 1 14 8
M  V30 9 1 15 3
M  V30 10 1 15 6
M  V30 11 1 16 3
M  V30 12 1 16 9
M  V30 13 1 16 11
M  V30 14 2 18 15
M  V30 15 1 19 1
M  V30 16 1 19 10
M  V30 17 1 20 4
M  V30 18 1 20 7
M  V30 19 1 21 9
M  V30 20 1 21 12
M  V30 21 2 22 8
M  V30 22 1 22 10
M  V30 23 1 22 17
M  V30 24 1 1 23 CFG=3
M  V30 25 1 24 3
M  V30 26 1 25 4
M  V30 27 1 26 4
M  V30 28 1 27 5
M  V30 29 1 28 5
M  V30 30 1 29 5
M  V30 31 1 7 30 CFG=1
M  V30 32 1 9 31 CFG=1
M  V30 33 1 32 10
M  V30 34 1 33 10
M  V30 35 1 34 11
M  V30 36 1 35 11
M  V30 37 1 36 12
M  V30 38 1 37 12
M  V30 39 1 38 12
M  V30 40 1 39 17
M  V30 41 1 40 17
M  V30 42 1 41 17
M  V30 43 1 42 19
M  V30 44 1 43 19
M  V30 45 1 44 20
M  V30 END BOND
M  V30 END CTAB
M  END
>  <i_epik_Tot_Q>  (1) 
0

>  <i_epik_Tot_abs_Q>  (1) 
0

>  <i_i_glide_confnum>  (1) 
353

>  <i_i_glide_lignum>  (1) 
74

>  <i_i_glide_posenum>  (1) 
331

>  <i_i_glide_rotatable_bonds>  (1) 
9

>  <i_lp_mmshare_version>  (1) 
72125

>  <i_m_source_file_index>  (1) 
43

>  <i_f3d_flags>  (1) 
0

>  <num_sample>  (1) 
100

>  <b_lp_Chiralities_Consistent>  (1) 
1

>  <r_epik_Charging_Adjusted_Penalty>  (1) 
0.73434514420425445

>  <r_epik_Ionization_Penalty>  (1) 
0.73524222016862195

>  <r_epik_Ionization_Penalty_Charging>  (1) 
0

>  <r_epik_Ionization_Penalty_Neutral>  (1) 
0.73524222016862195

>  <r_epik_State_Penalty>  (1) 
0.73434514420425445

>  <r_glide_ring_energy>  (1) 
0.0014600404396934196

>  <r_i_docking_score>  (1) 
-2.8572999950533018

>  <r_i_glide_ecoul>  (1) 
-2.4788966655037976

>  <r_i_glide_eff_state_penalty>  (1) 
0.73434514420425445

>  <r_i_glide_einternal>  (1) 
8.4985049620363764

>  <r_i_glide_emodel>  (1) 
-37.28574110169135

>  <r_i_glide_emodel_strain>  (1) 
0.282340273309309

>  <r_i_glide_energy>  (1) 
-33.49972862139964

>  <r_i_glide_erotb>  (1) 
1.1286281717494191

>  <r_i_glide_esite>  (1) 
-0.1272281224309845

>  <r_i_glide_evdw>  (1) 
-31.020831955895844

>  <r_i_glide_gscore>  (1) 
-3.5916451392575564

>  <r_i_glide_gscore_strain>  (1) 
0

>  <r_i_glide_hbond>  (1) 
0

>  <r_i_glide_ligand_efficiency>  (1) 
-0.12987727250242281

>  <r_i_glide_ligand_efficiency_ln>  (1) 
-0.698428341340667

>  <r_i_glide_ligand_efficiency_sa>  (1) 
-0.36392122571003616

>  <r_i_glide_lipo>  (1) 
-0.88454643942791422

>  <r_i_glide_metal>  (1) 
-0

>  <r_i_glide_rewards>  (1) 
-1.7856226515277152

>  <r_lp_Energy>  (1) 
12.752139999999999

>  <s_epik_Chemistry_Notes>  (1) 
This compound has an ester and may undergo hydrolysis at high or low pH. This compound has an imine and may undergo hydrolysis. This compound contains an acetal/aminal-like group ( X-CH(R)-Y where X, Y are N, S, or O) that may be acid/base labile, releasing an aldehyde.

>  <s_epik_cmdline>  (1) 
J2VwaWtfcHl0aG9uJywgJy1waHQnLCAnMS4wJywgJy1waCcsICc3LjQnLCAnLXRuJywgJzgnLCAnLW1hJywgJzUwMCcsICctaW1hZScsICc8aW5maWxlLm1hZT4nLCAnLW9tYWUnLCAnPG91dGZpbGUubWFlPic=

>  <s_epik_input>  (1) 
W0NIMl0xW0NIMl1DKFtDSDNdKT1OQyg9TylbQ0BIXTFPW0NAQEhdKE9bQ0gzXSlOKFtOSF1DKD1PKU9bQ0gzXSlbQ0gyXVtDQEBIXTJbQ0gyXVtOSF0y

>  <s_glide_docking_method>  (1) 
confgen

>  <s_i_glide_gridfile>  (1) 
gpcr_drd2_6luq_protein_autoprepared_prepared

>  <s_lp_Force_Field>  (1) 
S-OPLS

>  <s_lp_Variant>  (1) 
DiffSBDD_42_num_sample_100-2

>  <s_m_source_file>  (1) 
generated__ligand_DiffSBDD_2026-05-06_prepared.sdf

>  <GenAI_Model>  (1) 
DiffSBDD

>  <Protein>  (1) 
generic_title2

$$$$
DiffSBDD_93_num_sample_100
     RDKit          3D

  0  0  0  0  0  0  0  0  0  0999 V3000
M  V30 BEGIN CTAB
M  V30 COUNTS 36 36 0 0 1
M  V30 BEGIN ATOM
M  V30 1 C 17.763130 5.587472 -17.911137 0
M  V30 2 C 16.977224 5.619620 -21.209386 0
M  V30 3 C 17.943611 5.693030 -16.390653 0
M  V30 4 C 20.374420 4.324598 -22.388382 0
M  V30 5 C 21.424184 4.444696 -21.276568 0
M  V30 6 C 18.324167 6.808909 -18.682823 0 CFG=2
M  V30 7 C 18.476241 5.382883 -20.933093 0 CFG=2
M  V30 8 C 17.268002 7.918571 -18.858017 0
M  V30 9 C 20.590896 6.175184 -19.597534 0
M  V30 10 C 19.115424 6.468154 -19.994534 0 CFG=2
M  V30 11 C 19.191997 5.304464 -22.304734 0
M  V30 12 C 21.593374 5.863466 -20.719719 0
M  V30 13 H 18.234845 4.668257 -18.248300 0
M  V30 14 H 16.702335 5.460838 -18.125493 0
M  V30 15 H 16.804552 6.604682 -21.643934 0
M  V30 16 H 16.581336 4.880271 -21.906030 0
M  V30 17 H 16.368526 5.529568 -20.313924 0
M  V30 18 H 17.535978 4.817483 -15.885393 0
M  V30 19 H 17.434888 6.569301 -15.992334 0
M  V30 20 H 18.997994 5.769308 -16.124148 0
M  V30 21 H 20.864375 4.476864 -23.350759 0
M  V30 22 H 20.001335 3.299641 -22.408579 0
M  V30 23 H 22.380190 4.093831 -21.666892 0
M  V30 24 H 21.179813 3.761051 -20.462090 0
M  V30 25 H 19.046695 7.276618 -18.013893 0
M  V30 26 H 18.557216 4.404494 -20.458949 0
M  V30 27 H 16.420345 7.610439 -19.466003 0
M  V30 28 H 16.869602 8.228172 -17.891402 0
M  V30 29 H 17.701464 8.804425 -19.323020 0
M  V30 30 H 20.980934 7.049769 -19.075683 0
M  V30 31 H 20.634187 5.369318 -18.868216 0
M  V30 32 H 19.152718 7.390770 -20.575397 0
M  V30 33 H 19.505909 6.301414 -22.615683 0
M  V30 34 H 18.490435 4.990477 -23.078565 0
M  V30 35 H 21.562527 6.615432 -21.508498 0
M  V30 36 H 22.594388 5.931235 -20.291667 0
M  V30 END ATOM
M  V30 BEGIN BOND
M  V30 1 1 3 1
M  V30 2 1 5 4
M  V30 3 1 6 1
M  V30 4 1 7 2
M  V30 5 1 8 6
M  V30 6 1 10 6
M  V30 7 1 10 7
M  V30 8 1 10 9
M  V30 9 1 11 4
M  V30 10 1 11 7
M  V30 11 1 12 5
M  V30 12 1 12 9
M  V30 13 1 13 1
M  V30 14 1 14 1
M  V30 15 1 15 2
M  V30 16 1 16 2
M  V30 17 1 17 2
M  V30 18 1 18 3
M  V30 19 1 19 3
M  V30 20 1 20 3
M  V30 21 1 21 4
M  V30 22 1 22 4
M  V30 23 1 23 5
M  V30 24 1 24 5
M  V30 25 1 6 25 CFG=1
M  V30 26 1 7 26 CFG=1
M  V30 27 1 27 8
M  V30 28 1 28 8
M  V30 29 1 29 8
M  V30 30 1 30 9
M  V30 31 1 31 9
M  V30 32 1 10 32 CFG=3
M  V30 33 1 33 11
M  V30 34 1 34 11
M  V30 35 1 35 12
M  V30 36 1 36 12
M  V30 END BOND
M  V30 END CTAB
M  END
>  <i_epik_Tot_Q>  (1) 
0

>  <i_epik_Tot_abs_Q>  (1) 
0

>  <i_i_glide_confnum>  (1) 
13

>  <i_i_glide_lignum>  (1) 
188

>  <i_i_glide_posenum>  (1) 
255

>  <i_i_glide_rotatable_bonds>  (1) 
2

>  <i_lp_mmshare_version>  (1) 
72125

>  <i_m_source_file_index>  (1) 
94

>  <i_f3d_flags>  (1) 
0

>  <num_sample>  (1) 
100

>  <b_lp_Chiralities_Consistent>  (1) 
1

>  <r_epik_Charging_Adjusted_Penalty>  (1) 
0

>  <r_epik_Ionization_Penalty>  (1) 
0

>  <r_epik_Ionization_Penalty_Charging>  (1) 
0

>  <r_epik_Ionization_Penalty_Neutral>  (1) 
0

>  <r_epik_State_Penalty>  (1) 
-0

>  <r_glide_ring_energy>  (1) 
0.80241059426545425

>  <r_i_docking_score>  (1) 
-2.8252854142440209

>  <r_i_glide_ecoul>  (1) 
0.12625239734623689

>  <r_i_glide_eff_state_penalty>  (1) 
-0

>  <r_i_glide_einternal>  (1) 
0.77218098416084935

>  <r_i_glide_emodel>  (1) 
-10.552348792157545

>  <r_i_glide_emodel_strain>  (1) 
0.17141530733814392

>  <r_i_glide_energy>  (1) 
-8.9962352536974297

>  <r_i_glide_erotb>  (1) 
0.54244534581565329

>  <r_i_glide_esite>  (1) 
0

>  <r_i_glide_evdw>  (1) 
-9.1224876510436665

>  <r_i_glide_gscore>  (1) 
-2.8252854142440209

>  <r_i_glide_gscore_strain>  (1) 
0

>  <r_i_glide_hbond>  (1) 
0

>  <r_i_glide_ligand_efficiency>  (1) 
-0.23544045118700174

>  <r_i_glide_ligand_efficiency_ln>  (1) 
-0.81072054381023184

>  <r_i_glide_ligand_efficiency_sa>  (1) 
-0.53902407549388687

>  <r_i_glide_lipo>  (1) 
-0.68054423710942646

>  <r_i_glide_metal>  (1) 
-0

>  <r_i_glide_rewards>  (1) 
-2.25

>  <r_lp_Energy>  (1) 
24.382804

>  <r_lp_tautomer_probability>  (1) 
1

>  <s_epik_cmdline>  (1) 
J2VwaWtfcHl0aG9uJywgJy1waHQnLCAnMS4wJywgJy1waCcsICc3LjQnLCAnLXRuJywgJzgnLCAnLW1hJywgJzUwMCcsICctaW1hZScsICc8aW5maWxlLm1hZT4nLCAnLW9tYWUnLCAnPG91dGZpbGUubWFlPic=

>  <s_epik_input>  (1) 
W0NIM11bQ0gyXVtDQEhdKFtDSDNdKVtDQEhdKFtDQEhdMVtDSDNdKVtDSDJdW0NIMl1bQ0gyXVtDSDJdW0NIMl0x

>  <s_glide_docking_method>  (1) 
confgen

>  <s_i_glide_gridfile>  (1) 
gpcr_drd2_6luq_protein_autoprepared_prepared

>  <s_lp_Force_Field>  (1) 
S-OPLS

>  <s_lp_Variant>  (1) 
DiffSBDD_93_num_sample_100-1

>  <s_m_source_file>  (1) 
generated__ligand_DiffSBDD_2026-05-06_prepared.sdf

>  <GenAI_Model>  (1) 
DiffSBDD

>  <Protein>  (1) 
generic_title2

$$$$
DiffSBDD_10_num_sample_100
     RDKit          3D

  0  0  0  0  0  0  0  0  0  0999 V3000
M  V30 BEGIN CTAB
M  V30 COUNTS 71 74 0 0 1
M  V30 BEGIN ATOM
M  V30 1 Cl 8.528887 8.485572 -22.369004 0
M  V30 2 C 7.344722 4.221056 -13.281638 0 CFG=1
M  V30 3 O 7.684342 3.716772 -17.593421 0
M  V30 4 C 7.208004 4.220466 -19.910889 0 CFG=1
M  V30 5 C 6.301673 4.421558 -12.195184 0
M  V30 6 C 9.522527 5.523239 -11.307333 0
M  V30 7 C 7.434829 4.969325 -9.965414 0
M  V30 8 C 9.021762 4.911575 -15.981733 0
M  V30 9 C 5.772159 4.554900 -19.433445 0
M  V30 10 C 8.720948 6.306111 -12.375630 0
M  V30 11 C 5.720076 7.404074 -19.890594 0
M  V30 12 C 8.497141 3.525516 -16.433718 0 CFG=1
M  V30 13 C 6.647078 4.635699 -10.954475 0
M  V30 14 N 6.959222 1.624428 -15.948745 0
M  V30 15 C 7.248873 1.614838 -20.625803 0 CFG=2
M  V30 16 N 6.455796 1.271434 -19.435323 0
M  V30 17 O 7.141733 3.467570 -22.165243 0
M  V30 18 C 6.869330 -0.717516 -16.623557 0
M  V30 19 C 4.635151 8.250184 -20.157593 0
M  V30 20 C 7.767121 0.518097 -16.431574 0
M  V30 21 C 8.709828 1.121313 -20.533643 0
M  V30 22 N 8.797566 5.187745 -10.079563 0
M  V30 23 C 6.718500 3.569887 -14.529039 0
M  V30 24 C 8.210011 5.481457 -13.598793 0 CFG=1
M  V30 25 C 8.244041 3.956286 -18.802086 0
M  V30 26 S 5.618278 6.179517 -18.622875 0
M  V30 27 C 6.254802 -0.161841 -19.300209 0
M  V30 28 C 9.393517 5.064119 -14.496457 0
M  V30 29 C 5.993594 9.282727 -21.860226 0
M  V30 30 C 7.032091 8.387112 -21.519568 0
M  V30 31 F 3.760299 10.052333 -21.462610 0
M  V30 32 C 7.206446 3.116311 -20.988569 0
M  V30 33 C 7.710781 2.726773 -15.358810 0 CFG=2
M  V30 34 C 4.776661 9.208254 -21.165675 0
M  V30 35 S 5.434811 -0.460641 -17.719354 0
M  V30 36 O 9.454785 3.974836 -19.028222 0
M  V30 37 N 6.899803 7.451407 -20.545427 0
M  V30 38 H 8.013294 3.476624 -12.843587 0
M  V30 39 H 7.593105 5.092903 -20.433534 0
M  V30 40 H 5.266080 4.305790 -12.477577 0
M  V30 41 H 10.342162 6.169225 -10.996339 0
M  V30 42 H 9.974783 4.626143 -11.730127 0
M  V30 43 H 7.058975 5.179201 -8.978696 0
M  V30 44 H 8.296554 5.684150 -16.240711 0
M  V30 45 H 9.902061 5.145699 -16.581634 0
M  V30 46 H 5.077629 4.543357 -20.275512 0
M  V30 47 H 5.413250 3.797137 -18.738345 0
M  V30 48 H 7.902377 6.861807 -11.916444 0
M  V30 49 H 9.372452 7.099514 -12.736297 0
M  V30 50 H 9.353944 2.908104 -16.710031 0
M  V30 51 H 6.376692 1.958099 -16.705369 0
M  V30 52 H 6.794157 1.096988 -21.471756 0
M  V30 53 H 5.535604 1.686523 -19.476933 0
M  V30 54 H 6.481435 -1.030760 -15.654156 0
M  V30 55 H 7.459674 -1.549878 -17.008542 0
M  V30 56 H 3.716643 8.168962 -19.596201 0
M  V30 57 H 8.543994 0.278813 -15.704342 0
M  V30 58 H 8.266178 0.792900 -17.360134 0
M  V30 59 H 9.346394 1.603584 -21.276798 0
M  V30 60 H 8.779076 0.050206 -20.721252 0
M  V30 61 H 9.146243 1.309863 -19.553293 0
M  V30 62 H 9.199218 5.623224 -9.260747 0
M  V30 63 H 5.931298 2.907538 -14.167804 0
M  V30 64 H 6.234790 4.323194 -15.148767 0
M  V30 65 H 7.584875 6.178056 -14.158454 0
M  V30 66 H 5.616811 -0.519797 -20.109075 0
M  V30 67 H 7.183952 -0.729808 -19.328876 0
M  V30 68 H 9.834859 4.169317 -14.087291 0
M  V30 69 H 10.212415 5.769290 -14.428402 0
M  V30 70 H 6.135205 10.014209 -22.641699 0
M  V30 71 H 8.411822 2.275348 -14.658280 0
M  V30 END ATOM
M  V30 BEGIN BOND
M  V30 1 1 5 2
M  V30 2 1 9 4
M  V30 3 1 10 6
M  V30 4 1 12 3
M  V30 5 1 12 8
M  V30 6 2 13 5
M  V30 7 2 13 7
M  V30 8 1 16 15
M  V30 9 2 19 11
M  V30 10 1 20 14
M  V30 11 1 20 18
M  V30 12 1 21 15
M  V30 13 1 22 6
M  V30 14 1 22 7
M  V30 15 1 23 2
M  V30 16 1 24 2
M  V30 17 1 24 10
M  V30 18 1 25 3
M  V30 19 1 25 4
M  V30 20 1 26 9
M  V30 21 1 26 11
M  V30 22 1 27 16
M  V30 23 1 28 8
M  V30 24 1 28 24
M  V30 25 1 30 1
M  V30 26 1 30 29
M  V30 27 1 32 4
M  V30 28 1 32 15
M  V30 29 2 32 17
M  V30 30 1 33 12
M  V30 31 1 33 14
M  V30 32 1 33 23
M  V30 33 1 34 19
M  V30 34 2 34 29
M  V30 35 1 34 31
M  V30 36 1 35 18
M  V30 37 1 35 27
M  V30 38 2 36 25
M  V30 39 1 37 11
M  V30 40 2 37 30
M  V30 41 1 2 38 CFG=1
M  V30 42 1 4 39 CFG=3
M  V30 43 1 40 5
M  V30 44 1 41 6
M  V30 45 1 42 6
M  V30 46 1 43 7
M  V30 47 1 44 8
M  V30 48 1 45 8
M  V30 49 1 46 9
M  V30 50 1 47 9
M  V30 51 1 48 10
M  V30 52 1 49 10
M  V30 53 1 12 50 CFG=3
M  V30 54 1 51 14
M  V30 55 1 15 52 CFG=3
M  V30 56 1 53 16
M  V30 57 1 54 18
M  V30 58 1 55 18
M  V30 59 1 56 19
M  V30 60 1 57 20
M  V30 61 1 58 20
M  V30 62 1 59 21
M  V30 63 1 60 21
M  V30 64 1 61 21
M  V30 65 1 62 22
M  V30 66 1 63 23
M  V30 67 1 64 23
M  V30 68 1 24 65 CFG=3
M  V30 69 1 66 27
M  V30 70 1 67 27
M  V30 71 1 68 28
M  V30 72 1 69 28
M  V30 73 1 70 29
M  V30 74 1 33 71 CFG=1
M  V30 END BOND
M  V30 END CTAB
M  END
>  <i_epik_Tot_Q>  (1) 
0

>  <i_epik_Tot_abs_Q>  (1) 
0

>  <i_i_glide_confnum>  (1) 
15

>  <i_i_glide_lignum>  (1) 
17

>  <i_i_glide_posenum>  (1) 
291

>  <i_i_glide_rotatable_bonds>  (1) 
3

>  <i_lp_mmshare_version>  (1) 
72125

>  <i_m_source_file_index>  (1) 
11

>  <i_f3d_flags>  (1) 
0

>  <num_sample>  (1) 
100

>  <b_lp_Chiralities_Consistent>  (1) 
1

>  <r_epik_Charging_Adjusted_Penalty>  (1) 
1.3520569381630938

>  <r_epik_Ionization_Penalty>  (1) 
1.3561301993789512

>  <r_epik_Ionization_Penalty_Charging>  (1) 
0

>  <r_epik_Ionization_Penalty_Neutral>  (1) 
1.3561301993789512

>  <r_epik_State_Penalty>  (1) 
1.3520569381630938

>  <r_glide_ring_energy>  (1) 
0

>  <r_i_docking_score>  (1) 
-2.8207400314220514

>  <r_i_glide_ecoul>  (1) 
0.18946343487737441

>  <r_i_glide_eff_state_penalty>  (1) 
1.3520569381630938

>  <r_i_glide_einternal>  (1) 
0.47367642623009787

>  <r_i_glide_emodel>  (1) 
-43.166717584439205

>  <r_i_glide_emodel_strain>  (1) 
0.15875103451376305

>  <r_i_glide_energy>  (1) 
-35.92361903676457

>  <r_i_glide_erotb>  (1) 
0.10399733719332836

>  <r_i_glide_esite>  (1) 
-0.027706915235563446

>  <r_i_glide_evdw>  (1) 
-36.113082471641945

>  <r_i_glide_gscore>  (1) 
-4.1727969695851455

>  <r_i_glide_gscore_strain>  (1) 
0

>  <r_i_glide_hbond>  (1) 
0

>  <r_i_glide_ligand_efficiency>  (1) 
-0.076236217065460854

>  <r_i_glide_ligand_efficiency_ln>  (1) 
-0.61175238528686826

>  <r_i_glide_ligand_efficiency_sa>  (1) 
-0.25403598839235281

>  <r_i_glide_lipo>  (1) 
-1.9279660268738208

>  <r_i_glide_metal>  (1) 
-0

>  <r_i_glide_rewards>  (1) 
-0.54388675631859917

>  <r_lp_Energy>  (1) 
32.404224999999997

>  <r_lp_tautomer_probability>  (1) 
0.99999998000000012

>  <s_epik_Chemistry_Notes>  (1) 
This compound has an ester and may undergo hydrolysis at high or low pH. This compound contains an acetal/aminal-like group ( X-CH(R)-Y where X, Y are N, S, or O) that may be acid/base labile, releasing an aldehyde.

>  <s_epik_cmdline>  (1) 
J2VwaWtfcHl0aG9uJywgJy1waHQnLCAnMS4wJywgJy1waCcsICc3LjQnLCAnLXRuJywgJzgnLCAnLW1hJywgJzUwMCcsICctaW1hZScsICc8aW5maWxlLm1hZT4nLCAnLW9tYWUnLCAnPG91dGZpbGUubWFlPic=

>  <s_epik_input>  (1) 
Q2xjKG4xKVtjSF1jKEYpW2NIXWMxU1tDSDJdW0NAQEhdKEMoTzIpPU8pQyg9TylbQ0BASF0oW0NIM10pW05IXVtDSDJdU1tDSDJdW0NIMl1bTkhdW0NASF0oW0NIMl0zKVtDQEBIXTJbQ0gyXVtDSDJdW0NAQEhdKFtDQEhdMzQpW0NIMl1bQ0gyXVtOSF1bQ0hdPUM9W0NIXTQ=

>  <s_glide_docking_method>  (1) 
confgen

>  <s_i_glide_gridfile>  (1) 
gpcr_drd2_6luq_protein_autoprepared_prepared

>  <s_lp_Force_Field>  (1) 
S-OPLS

>  <s_lp_Variant>  (1) 
DiffSBDD_10_num_sample_100-2

>  <s_m_source_file>  (1) 
generated__ligand_DiffSBDD_2026-05-06_prepared.sdf

>  <GenAI_Model>  (1) 
DiffSBDD

>  <Protein>  (1) 
generic_title2

$$$$
DiffSBDD_10_num_sample_100
     RDKit          3D

  0  0  0  0  0  0  0  0  0  0999 V3000
M  V30 BEGIN CTAB
M  V30 COUNTS 71 74 0 0 1
M  V30 BEGIN ATOM
M  V30 1 Cl 14.411350 9.369281 -22.277764 0
M  V30 2 C 7.037864 5.371958 -14.543292 0 CFG=1
M  V30 3 O 8.883737 4.987237 -18.479609 0
M  V30 4 C 10.583239 5.212121 -20.185645 0 CFG=1
M  V30 5 C 7.012900 6.385419 -13.401787 0
M  V30 6 C 6.234811 3.140994 -12.424343 0
M  V30 7 C 6.057332 5.369339 -11.242399 0
M  V30 8 C 8.552963 3.420699 -16.673483 0
M  V30 9 C 10.852294 6.616723 -19.585846 0
M  V30 10 C 7.693811 3.372987 -12.892425 0
M  V30 11 C 13.440209 7.747349 -18.866947 0
M  V30 12 C 7.867390 4.340370 -17.713890 0 CFG=1
M  V30 13 C 6.498300 6.097040 -12.235544 0
M  V30 14 N 6.591129 6.456111 -18.111033 0
M  V30 15 C 8.810897 5.643263 -22.166461 0 CFG=2
M  V30 16 N 8.146192 6.643482 -21.316313 0
M  V30 17 O 11.123759 5.030269 -22.498901 0
M  V30 18 C 5.021267 7.164459 -19.876795 0
M  V30 19 C 14.322529 8.292254 -17.925154 0
M  V30 20 C 5.691528 5.983325 -19.153670 0
M  V30 21 C 7.960837 4.367669 -22.358843 0
M  V30 22 N 5.834843 4.006135 -11.310312 0
M  V30 23 C 7.435928 6.089610 -15.849209 0
M  V30 24 C 7.886216 4.081685 -14.270720 0 CFG=1
M  V30 25 C 9.581477 4.320735 -19.426216 0
M  V30 26 S 12.215233 6.569452 -18.376699 0
M  V30 27 C 6.941925 7.183906 -21.923520 0
M  V30 28 C 7.739069 3.054488 -15.420923 0
M  V30 29 C 15.299679 9.560075 -19.728778 0
M  V30 30 C 14.371734 8.954332 -20.604962 0
M  V30 31 F 16.147743 9.776802 -17.500041 0
M  V30 32 C 10.233214 5.274000 -21.686790 0
M  V30 33 C 6.914261 5.419525 -17.130696 0 CFG=2
M  V30 34 C 15.271333 9.219632 -18.367884 0
M  V30 35 S 6.171859 8.292727 -20.721676 0
M  V30 36 O 9.454451 3.122886 -19.684226 0
M  V30 37 N 13.449228 8.053466 -20.183275 0
M  V30 38 H 5.996707 5.063636 -14.649987 0
M  V30 39 H 11.528495 4.670365 -20.147165 0
M  V30 40 H 7.373771 7.379883 -13.620339 0
M  V30 41 H 6.132933 2.107725 -12.092485 0
M  V30 42 H 5.533562 3.259689 -13.250231 0
M  V30 43 H 5.878236 5.779439 -10.259528 0
M  V30 44 H 9.503030 3.858477 -16.362899 0
M  V30 45 H 8.826462 2.494382 -17.178873 0
M  V30 46 H 11.078289 7.328075 -20.378135 0
M  V30 47 H 9.980232 7.042729 -19.091311 0
M  V30 48 H 8.247689 3.917871 -12.126307 0
M  V30 49 H 8.201785 2.407995 -12.911941 0
M  V30 50 H 7.272057 3.718351 -18.384464 0
M  V30 51 H 7.439624 6.802891 -18.537906 0
M  V30 52 H 8.939932 6.092578 -23.152433 0
M  V30 53 H 8.757036 7.427744 -21.134331 0
M  V30 54 H 4.438091 7.748924 -19.163960 0
M  V30 55 H 4.316647 6.785098 -20.617139 0
M  V30 56 H 14.268231 8.006694 -16.885614 0
M  V30 57 H 4.906935 5.372262 -18.709793 0
M  V30 58 H 6.228866 5.343322 -19.852910 0
M  V30 59 H 8.554865 3.547307 -22.764555 0
M  V30 60 H 7.145475 4.533269 -23.062194 0
M  V30 61 H 7.521725 4.021926 -21.422930 0
M  V30 62 H 5.640425 3.540727 -10.434292 0
M  V30 63 H 7.034428 7.104010 -15.810644 0
M  V30 64 H 8.521913 6.169301 -15.890308 0
M  V30 65 H 8.931225 4.396214 -14.254907 0
M  V30 66 H 7.206148 7.749060 -22.818464 0
M  V30 67 H 6.226586 6.413941 -22.209039 0
M  V30 68 H 6.691738 2.877653 -15.665034 0
M  V30 69 H 8.118641 2.089532 -15.084054 0
M  V30 70 H 16.019775 10.273498 -20.100649 0
M  V30 71 H 5.966350 4.969314 -16.865465 0
M  V30 END ATOM
M  V30 BEGIN BOND
M  V30 1 1 5 2
M  V30 2 1 9 4
M  V30 3 1 10 6
M  V30 4 1 12 3
M  V30 5 1 12 8
M  V30 6 2 13 5
M  V30 7 2 13 7
M  V30 8 1 16 15
M  V30 9 2 19 11
M  V30 10 1 20 14
M  V30 11 1 20 18
M  V30 12 1 21 15
M  V30 13 1 22 6
M  V30 14 1 22 7
M  V30 15 1 23 2
M  V30 16 1 24 2
M  V30 17 1 24 10
M  V30 18 1 25 3
M  V30 19 1 25 4
M  V30 20 1 26 9
M  V30 21 1 26 11
M  V30 22 1 27 16
M  V30 23 1 28 8
M  V30 24 1 28 24
M  V30 25 1 30 1
M  V30 26 1 30 29
M  V30 27 1 32 4
M  V30 28 1 32 15
M  V30 29 2 32 17
M  V30 30 1 33 12
M  V30 31 1 33 14
M  V30 32 1 33 23
M  V30 33 1 34 19
M  V30 34 2 34 29
M  V30 35 1 34 31
M  V30 36 1 35 18
M  V30 37 1 35 27
M  V30 38 2 36 25
M  V30 39 1 37 11
M  V30 40 2 37 30
M  V30 41 1 2 38 CFG=3
M  V30 42 1 4 39 CFG=3
M  V30 43 1 40 5
M  V30 44 1 41 6
M  V30 45 1 42 6
M  V30 46 1 43 7
M  V30 47 1 44 8
M  V30 48 1 45 8
M  V30 49 1 46 9
M  V30 50 1 47 9
M  V30 51 1 48 10
M  V30 52 1 49 10
M  V30 53 1 12 50 CFG=3
M  V30 54 1 51 14
M  V30 55 1 15 52 CFG=3
M  V30 56 1 53 16
M  V30 57 1 54 18
M  V30 58 1 55 18
M  V30 59 1 56 19
M  V30 60 1 57 20
M  V30 61 1 58 20
M  V30 62 1 59 21
M  V30 63 1 60 21
M  V30 64 1 61 21
M  V30 65 1 62 22
M  V30 66 1 63 23
M  V30 67 1 64 23
M  V30 68 1 24 65 CFG=1
M  V30 69 1 66 27
M  V30 70 1 67 27
M  V30 71 1 68 28
M  V30 72 1 69 28
M  V30 73 1 70 29
M  V30 74 1 33 71 CFG=1
M  V30 END BOND
M  V30 END CTAB
M  END
>  <i_epik_Tot_Q>  (1) 
0

>  <i_epik_Tot_abs_Q>  (1) 
0

>  <i_i_glide_confnum>  (1) 
1

>  <i_i_glide_lignum>  (1) 
17

>  <i_i_glide_posenum>  (1) 
381

>  <i_i_glide_rotatable_bonds>  (1) 
3

>  <i_lp_mmshare_version>  (1) 
72125

>  <i_m_source_file_index>  (1) 
11

>  <i_f3d_flags>  (1) 
0

>  <num_sample>  (1) 
100

>  <b_lp_Chiralities_Consistent>  (1) 
1

>  <r_epik_Charging_Adjusted_Penalty>  (1) 
1.3520569381630938

>  <r_epik_Ionization_Penalty>  (1) 
1.3561301993789512

>  <r_epik_Ionization_Penalty_Charging>  (1) 
0

>  <r_epik_Ionization_Penalty_Neutral>  (1) 
1.3561301993789512

>  <r_epik_State_Penalty>  (1) 
1.3520569381630938

>  <r_glide_ring_energy>  (1) 
0

>  <r_i_docking_score>  (1) 
-2.8174721005462224

>  <r_i_glide_ecoul>  (1) 
-0.91547842033517512

>  <r_i_glide_eff_state_penalty>  (1) 
1.3520569381630938

>  <r_i_glide_einternal>  (1) 
2.9625291789131021

>  <r_i_glide_emodel>  (1) 
-40.952170338312378

>  <r_i_glide_emodel_strain>  (1) 
0.65551581616230692

>  <r_i_glide_energy>  (1) 
-35.456245195997845

>  <r_i_glide_erotb>  (1) 
0.10399733719332836

>  <r_i_glide_esite>  (1) 
0

>  <r_i_glide_evdw>  (1) 
-34.540766775662668

>  <r_i_glide_gscore>  (1) 
-4.1695290387093165

>  <r_i_glide_gscore_strain>  (1) 
0

>  <r_i_glide_hbond>  (1) 
0

>  <r_i_glide_ligand_efficiency>  (1) 
-0.076147894609357364

>  <r_i_glide_ligand_efficiency_ln>  (1) 
-0.61104364769107034

>  <r_i_glide_ligand_efficiency_sa>  (1) 
-0.25374167837413375

>  <r_i_glide_lipo>  (1) 
-1.9724365903769645

>  <r_i_glide_metal>  (1) 
-0

>  <r_i_glide_rewards>  (1) 
-0.43672968369227066

>  <r_lp_Energy>  (1) 
32.404224999999997

>  <r_lp_tautomer_probability>  (1) 
0.99999998000000012

>  <s_epik_Chemistry_Notes>  (1) 
This compound has an ester and may undergo hydrolysis at high or low pH. This compound contains an acetal/aminal-like group ( X-CH(R)-Y where X, Y are N, S, or O) that may be acid/base labile, releasing an aldehyde.

>  <s_epik_cmdline>  (1) 
J2VwaWtfcHl0aG9uJywgJy1waHQnLCAnMS4wJywgJy1waCcsICc3LjQnLCAnLXRuJywgJzgnLCAnLW1hJywgJzUwMCcsICctaW1hZScsICc8aW5maWxlLm1hZT4nLCAnLW9tYWUnLCAnPG91dGZpbGUubWFlPic=

>  <s_epik_input>  (1) 
Q2xjKG4xKVtjSF1jKEYpW2NIXWMxU1tDSDJdW0NAQEhdKEMoTzIpPU8pQyg9TylbQ0BASF0oW0NIM10pW05IXVtDSDJdU1tDSDJdW0NIMl1bTkhdW0NASF0oW0NIMl0zKVtDQEBIXTJbQ0gyXVtDSDJdW0NAQEhdKFtDQEhdMzQpW0NIMl1bQ0gyXVtOSF1bQ0hdPUM9W0NIXTQ=

>  <s_glide_docking_method>  (1) 
confgen

>  <s_i_glide_gridfile>  (1) 
gpcr_drd2_6luq_protein_autoprepared_prepared

>  <s_lp_Force_Field>  (1) 
S-OPLS

>  <s_lp_Variant>  (1) 
DiffSBDD_10_num_sample_100-2

>  <s_m_source_file>  (1) 
generated__ligand_DiffSBDD_2026-05-06_prepared.sdf

>  <GenAI_Model>  (1) 
DiffSBDD

>  <Protein>  (1) 
generic_title2

$$$$
DiffSBDD_12_num_sample_100
     RDKit          3D

  0  0  0  0  0  0  0  0  0  0999 V3000
M  V30 BEGIN CTAB
M  V30 COUNTS 67 71 0 0 1
M  V30 BEGIN ATOM
M  V30 1 C 8.274353 1.985580 -17.549636 0
M  V30 2 C 7.689583 1.900120 -16.232760 0
M  V30 3 F 8.169563 -1.213230 -20.149572 0
M  V30 4 O 9.890678 5.175551 -15.173663 0
M  V30 5 C 9.860414 6.382367 -5.543734 0
M  V30 6 C 6.458011 0.631168 -14.445800 0
M  V30 7 C 7.353285 0.534333 -15.658151 0 CFG=1
M  V30 8 F 7.997138 -2.622677 -18.519899 0
M  V30 9 C 11.852963 7.122856 -7.696032 0
M  V30 10 C 5.670016 4.513650 -12.552490 0
M  V30 11 C 7.517756 -1.483333 -19.017211 0
M  V30 12 C 8.643306 4.555388 -10.474519 0 CFG=1
M  V30 13 C 12.719022 7.944943 -8.688961 0
M  V30 14 C 11.786512 8.965304 -9.310070 0
M  V30 15 C 9.860451 7.720908 -6.286647 0
M  V30 16 C 7.656492 -0.357966 -18.000887 0
M  V30 17 C 7.427766 3.019889 -15.522414 0
M  V30 18 C 6.234966 1.798416 -13.826041 0
M  V30 19 O 7.362411 4.569312 -9.892032 0
M  V30 20 O 7.496790 5.230494 -13.865745 0
M  V30 21 C 9.862688 5.560711 -12.316462 0 CFG=1
M  V30 22 C 10.417835 7.605336 -7.726069 0
M  V30 23 C 6.606921 4.247408 -13.542781 0
M  V30 24 F 6.232694 -1.681355 -19.311335 0
M  V30 25 C 9.702402 6.844615 -10.133117 0
M  V30 26 C 10.631324 8.969298 -8.319715 0
M  V30 27 C 8.868319 3.476904 -11.522369 0
M  V30 28 P 9.112582 5.069723 -13.906017 0 CFG=2
M  V30 29 C 8.981688 5.900986 -11.112878 0 CFG=2
M  V30 30 C 9.500614 6.705488 -8.591153 0
M  V30 31 O 5.434874 5.495069 -11.819649 0 CHG=-1
M  V30 32 C 8.275318 0.921350 -18.378034 0
M  V30 33 C 7.200866 -0.519864 -16.737092 0
M  V30 34 N 6.768731 3.023017 -14.279882 0
M  V30 35 C 9.757849 4.066560 -12.547688 0 CFG=1
M  V30 36 H 8.698809 2.921493 -17.885435 0
M  V30 37 H 9.834794 6.519468 -4.465756 0
M  V30 38 H 8.999669 5.791808 -5.856477 0
M  V30 39 H 10.751992 5.787323 -5.737050 0
M  V30 40 H 6.032607 -0.286528 -14.061723 0
M  V30 41 H 8.288676 0.228114 -15.186066 0
M  V30 42 H 12.234822 7.268939 -6.693492 0
M  V30 43 H 11.834806 6.059652 -7.852916 0
M  V30 44 H 5.068554 3.612332 -12.490200 0
M  V30 45 H 9.371273 4.299224 -9.709373 0
M  V30 46 H 13.513961 8.459610 -8.150412 0
M  V30 47 H 13.188636 7.369292 -9.481962 0
M  V30 48 H 12.234786 9.946459 -9.426729 0
M  V30 49 H 11.497260 8.682442 -10.317189 0
M  V30 50 H 10.460966 8.424840 -5.709527 0
M  V30 51 H 8.850605 8.135454 -6.294108 0
M  V30 52 H 7.657348 4.002426 -15.903975 0
M  V30 53 H 5.640063 1.854976 -12.944073 0
M  V30 54 H 6.747930 5.001425 -10.484507 0
M  V30 55 H 10.840067 6.034318 -12.388692 0
M  V30 56 H 10.762844 6.702376 -10.303475 0
M  V30 57 H 9.447870 7.856019 -10.447215 0
M  V30 58 H 9.705283 9.369301 -8.730527 0
M  V30 59 H 11.034737 9.594146 -7.511877 0
M  V30 60 H 9.434791 2.663083 -11.091601 0
M  V30 61 H 7.978263 3.041343 -11.945029 0
M  V30 62 H 8.071563 6.380744 -11.479416 0
M  V30 63 H 8.475093 6.890165 -8.293492 0
M  V30 64 H 9.671798 5.686224 -8.258000 0
M  V30 65 H 8.706706 1.026487 -19.361782 0
M  V30 66 H 6.740588 -1.448800 -16.447277 0
M  V30 67 H 10.634819 3.468233 -12.691649 0
M  V30 END ATOM
M  V30 BEGIN BOND
M  V30 1 1 2 1
M  V30 2 1 7 2
M  V30 3 1 7 6
M  V30 4 1 11 3
M  V30 5 1 11 8
M  V30 6 1 13 9
M  V30 7 1 14 13
M  V30 8 1 15 5
M  V30 9 1 16 11
M  V30 10 2 17 2
M  V30 11 2 18 6
M  V30 12 1 19 12
M  V30 13 1 22 9
M  V30 14 1 22 15
M  V30 15 2 23 10
M  V30 16 1 23 20
M  V30 17 1 24 11
M  V30 18 1 26 14
M  V30 19 1 26 22
M  V30 20 1 27 12
M  V30 21 2 28 4
M  V30 22 1 28 20 CFG=3
M  V30 23 1 28 21
M  V30 24 1 29 12
M  V30 25 1 29 21
M  V30 26 1 29 25
M  V30 27 1 30 22
M  V30 28 1 30 25
M  V30 29 1 31 10
M  V30 30 2 32 1
M  V30 31 1 32 16
M  V30 32 1 33 7
M  V30 33 2 33 16
M  V30 34 1 34 17
M  V30 35 1 34 18
M  V30 36 1 34 23
M  V30 37 1 35 21
M  V30 38 1 35 27
M  V30 39 1 35 28
M  V30 40 1 36 1
M  V30 41 1 37 5
M  V30 42 1 38 5
M  V30 43 1 39 5
M  V30 44 1 40 6
M  V30 45 1 7 41 CFG=1
M  V30 46 1 42 9
M  V30 47 1 43 9
M  V30 48 1 44 10
M  V30 49 1 12 45 CFG=1
M  V30 50 1 46 13
M  V30 51 1 47 13
M  V30 52 1 48 14
M  V30 53 1 49 14
M  V30 54 1 50 15
M  V30 55 1 51 15
M  V30 56 1 52 17
M  V30 57 1 53 18
M  V30 58 1 54 19
M  V30 59 1 21 55 CFG=3
M  V30 60 1 56 25
M  V30 61 1 57 25
M  V30 62 1 58 26
M  V30 63 1 59 26
M  V30 64 1 60 27
M  V30 65 1 61 27
M  V30 66 1 29 62 CFG=3
M  V30 67 1 63 30
M  V30 68 1 64 30
M  V30 69 1 65 32
M  V30 70 1 66 33
M  V30 71 1 35 67 CFG=3
M  V30 END BOND
M  V30 END CTAB
M  END
>  <i_epik_Tot_Q>  (1) 
-1

>  <i_epik_Tot_abs_Q>  (1) 
1

>  <i_i_glide_confnum>  (1) 
315

>  <i_i_glide_lignum>  (1) 
20

>  <i_i_glide_posenum>  (1) 
152

>  <i_i_glide_rotatable_bonds>  (1) 
9

>  <i_lp_mmshare_version>  (1) 
72125

>  <i_m_source_file_index>  (1) 
13

>  <i_f3d_flags>  (1) 
0

>  <num_sample>  (1) 
100

>  <b_lp_Chiralities_Consistent>  (1) 
1

>  <r_epik_Charging_Adjusted_Penalty>  (1) 
6.0913929175536644e-07

>  <r_epik_Ionization_Penalty>  (1) 
7.5242037030438095e-07

>  <r_epik_Ionization_Penalty_Charging>  (1) 
6.0913929175536644e-07

>  <r_epik_Ionization_Penalty_Neutral>  (1) 
1.4328107854901448e-07

>  <r_epik_State_Penalty>  (1) 
-0

>  <r_glide_ring_energy>  (1) 
0.00028320506983768638

>  <r_i_docking_score>  (1) 
-2.8034335546987923

>  <r_i_glide_ecoul>  (1) 
0.99903268898489428

>  <r_i_glide_eff_state_penalty>  (1) 
-0

>  <r_i_glide_einternal>  (1) 
12.249743021172083

>  <r_i_glide_emodel>  (1) 
-7.8035467291389988

>  <r_i_glide_emodel_strain>  (1) 
2.9188073469146616

>  <r_i_glide_energy>  (1) 
-12.609482262051065

>  <r_i_glide_erotb>  (1) 
0.47163652173243925

>  <r_i_glide_esite>  (1) 
-0.017631196396473002

>  <r_i_glide_evdw>  (1) 
-13.608514951035959

>  <r_i_glide_gscore>  (1) 
-2.8034335546987923

>  <r_i_glide_gscore_strain>  (1) 
0

>  <r_i_glide_hbond>  (1) 
0

>  <r_i_glide_ligand_efficiency>  (1) 
-0.080098101562822641

>  <r_i_glide_ligand_efficiency_ln>  (1) 
-0.61541588411186821

>  <r_i_glide_ligand_efficiency_sa>  (1) 
-0.26200620153221321

>  <r_i_glide_lipo>  (1) 
-1.8874983124237286

>  <r_i_glide_metal>  (1) 
-0

>  <r_i_glide_rewards>  (1) 
-0.83936972340696603

>  <r_lp_Energy>  (1) 
62.944064999999995

>  <r_lp_tautomer_probability>  (1) 
1

>  <s_epik_Chemistry_Notes>  (1) 
This compound has an imine and may undergo hydrolysis.

>  <s_epik_cmdline>  (1) 
J2VwaWtfcHl0aG9uJywgJy1waHQnLCAnMS4wJywgJy1waCcsICc3LjQnLCAnLXRuJywgJzgnLCAnLW1hJywgJzUwMCcsICctaW1hZScsICc8aW5maWxlLm1hZT4nLCAnLW9tYWUnLCAnPG91dGZpbGUubWFlPic=

>  <s_epik_input>  (1) 
W0NIXTE9W0NIXUMoQyhGKShGKUYpPVtDSF1bQ0BASF0oQzE9MilbQ0hdPVtDSF1OKFtDSF0yKVtDQEBIXShbQ0hdPU8pT1tQQF0zKD1PKVtDQEBIXShbQ0BASF0zNClbQ0gyXVtDQEhdKFtPSF0pW0NASF00W0NIMl1bQ0gyXUM1KFtDSDJdW0NIM10pW0NIMl1bQ0gyXVtDSDJdW0NIMl01

>  <s_glide_docking_method>  (1) 
confgen

>  <s_i_glide_gridfile>  (1) 
gpcr_drd2_6luq_protein_autoprepared_prepared

>  <s_lp_Force_Field>  (1) 
S-OPLS

>  <s_lp_Variant>  (1) 
DiffSBDD_12_num_sample_100-1

>  <s_m_source_file>  (1) 
generated__ligand_DiffSBDD_2026-05-06_prepared.sdf

>  <GenAI_Model>  (1) 
DiffSBDD

>  <Protein>  (1) 
generic_title2

$$$$
DiffSBDD_42_num_sample_100
     RDKit          3D

  0  0  0  0  0  0  0  0  0  0999 V3000
M  V30 BEGIN CTAB
M  V30 COUNTS 45 46 0 0 1
M  V30 BEGIN ATOM
M  V30 1 C 7.091088 4.983031 -14.461838 0 CFG=2
M  V30 2 O 5.857637 7.044427 -14.504943 0
M  V30 3 N 9.185744 2.491685 -17.691586 0
M  V30 4 C 12.273510 3.371719 -17.338013 0
M  V30 5 C 8.641411 -1.022784 -17.705304 0
M  V30 6 O 8.930130 0.319959 -18.065264 0
M  V30 7 C 11.455736 4.509256 -17.911344 0 CFG=1
M  V30 8 N 7.605764 6.903325 -12.964312 0
M  V30 9 C 7.877895 4.169946 -16.543100 0 CFG=2
M  V30 10 C 8.864813 4.788122 -12.734695 0
M  V30 11 C 9.973818 4.766128 -17.671327 0
M  V30 12 C 6.551127 3.773671 -18.495304 0
M  V30 13 O 8.037538 5.090300 -15.517365 0
M  V30 14 C 6.776609 6.418913 -13.982230 0
M  V30 15 C 8.791900 1.280420 -17.146681 0
M  V30 16 N 9.201517 3.709543 -16.995553 0
M  V30 17 C 9.383707 6.834415 -11.290826 0
M  V30 18 O 8.379877 1.090498 -16.001947 0
M  V30 19 C 7.668162 4.087118 -13.361989 0
M  V30 20 N 12.223448 4.665351 -16.689212 0 CHG=1
M  V30 21 O 7.077638 4.701466 -17.557915 0
M  V30 22 C 8.530943 6.232112 -12.384690 0
M  V30 23 H 6.152931 4.554333 -14.823330 0
M  V30 24 H 9.492931 2.491016 -18.651724 0
M  V30 25 H 11.826038 2.620569 -16.691668 0
M  V30 26 H 13.263137 3.175221 -17.750171 0
M  V30 27 H 8.891168 -1.699523 -18.521237 0
M  V30 28 H 9.217429 -1.327217 -16.830055 0
M  V30 29 H 7.581280 -1.140616 -17.481148 0
M  V30 30 H 11.913616 5.125643 -18.682056 0
M  V30 31 H 7.394315 3.290755 -16.118318 0
M  V30 32 H 9.704513 4.788412 -13.432154 0
M  V30 33 H 9.197069 4.249562 -11.846430 0
M  V30 34 H 9.509917 4.965264 -18.637896 0
M  V30 35 H 9.873738 5.690998 -17.101560 0
M  V30 36 H 5.685168 4.216205 -18.986958 0
M  V30 37 H 7.281348 3.540882 -19.268226 0
M  V30 38 H 6.237192 2.843844 -18.020407 0
M  V30 39 H 9.363529 6.200405 -10.405195 0
M  V30 40 H 10.414267 6.938640 -11.628627 0
M  V30 41 H 9.012496 7.819695 -11.006451 0
M  V30 42 H 6.908620 3.897407 -12.601788 0
M  V30 43 H 7.961621 3.113433 -13.756357 0
M  V30 44 H 13.065071 5.217463 -16.757816 0
M  V30 45 H 11.708350 4.656141 -15.815968 0
M  V30 END ATOM
M  V30 BEGIN BOND
M  V30 1 1 6 5
M  V30 2 1 7 4
M  V30 3 1 11 7
M  V30 4 1 13 1
M  V30 5 1 13 9
M  V30 6 1 14 1
M  V30 7 2 14 2
M  V30 8 1 14 8
M  V30 9 1 15 3
M  V30 10 1 15 6
M  V30 11 1 16 3
M  V30 12 1 16 9
M  V30 13 1 16 11
M  V30 14 2 18 15
M  V30 15 1 19 1
M  V30 16 1 19 10
M  V30 17 1 20 4
M  V30 18 1 20 7
M  V30 19 1 21 9
M  V30 20 1 21 12
M  V30 21 2 22 8
M  V30 22 1 22 10
M  V30 23 1 22 17
M  V30 24 1 1 23 CFG=3
M  V30 25 1 24 3
M  V30 26 1 25 4
M  V30 27 1 26 4
M  V30 28 1 27 5
M  V30 29 1 28 5
M  V30 30 1 29 5
M  V30 31 1 7 30 CFG=3
M  V30 32 1 9 31 CFG=1
M  V30 33 1 32 10
M  V30 34 1 33 10
M  V30 35 1 34 11
M  V30 36 1 35 11
M  V30 37 1 36 12
M  V30 38 1 37 12
M  V30 39 1 38 12
M  V30 40 1 39 17
M  V30 41 1 40 17
M  V30 42 1 41 17
M  V30 43 1 42 19
M  V30 44 1 43 19
M  V30 45 1 44 20
M  V30 46 1 45 20
M  V30 END BOND
M  V30 END CTAB
M  END
>  <i_epik_Tot_Q>  (1) 
1

>  <i_epik_Tot_abs_Q>  (1) 
1

>  <i_i_glide_confnum>  (1) 
57

>  <i_i_glide_lignum>  (1) 
73

>  <i_i_glide_posenum>  (1) 
101

>  <i_i_glide_rotatable_bonds>  (1) 
9

>  <i_lp_mmshare_version>  (1) 
72125

>  <i_m_source_file_index>  (1) 
43

>  <i_f3d_flags>  (1) 
0

>  <num_sample>  (1) 
100

>  <b_lp_Chiralities_Consistent>  (1) 
1

>  <r_epik_Charging_Adjusted_Penalty>  (1) 
0.40508873970444137

>  <r_epik_Ionization_Penalty>  (1) 
0.2046740673665137

>  <r_epik_Ionization_Penalty_Charging>  (1) 
0.20254436985222068

>  <r_epik_Ionization_Penalty_Neutral>  (1) 
0.0021296975142930212

>  <r_epik_State_Penalty>  (1) 
0.20254436985222066

>  <r_glide_ring_energy>  (1) 
0

>  <r_i_docking_score>  (1) 
-2.7943010640495229

>  <r_i_glide_ecoul>  (1) 
-4.2495490525369206

>  <r_i_glide_eff_state_penalty>  (1) 
0.20254436985222066

>  <r_i_glide_einternal>  (1) 
5.9553857655978746

>  <r_i_glide_emodel>  (1) 
-30.351508798758854

>  <r_i_glide_emodel_strain>  (1) 
1.8334926318982419

>  <r_i_glide_energy>  (1) 
-25.9520010901437

>  <r_i_glide_erotb>  (1) 
1.1222905180223397

>  <r_i_glide_esite>  (1) 
-0.02755522937684135

>  <r_i_glide_evdw>  (1) 
-21.702452037606779

>  <r_i_glide_gscore>  (1) 
-2.9968454339017434

>  <r_i_glide_gscore_strain>  (1) 
0

>  <r_i_glide_hbond>  (1) 
0

>  <r_i_glide_ligand_efficiency>  (1) 
-0.12701368472952376

>  <r_i_glide_ligand_efficiency_ln>  (1) 
-0.68302910466150146

>  <r_i_glide_ligand_efficiency_sa>  (1) 
-0.3558973401435892

>  <r_i_glide_lipo>  (1) 
-0.560342888881325

>  <r_i_glide_metal>  (1) 
-0

>  <r_i_glide_rewards>  (1) 
-1.8086828739050398

>  <r_lp_Energy>  (1) 
15.805226999999999

>  <s_epik_Chemistry_Notes>  (1) 
This compound has an ester and may undergo hydrolysis at high or low pH. This compound has an imine and may undergo hydrolysis. This compound contains an acetal/aminal-like group ( X-CH(R)-Y where X, Y are N, S, or O) that may be acid/base labile, releasing an aldehyde.

>  <s_epik_cmdline>  (1) 
J2VwaWtfcHl0aG9uJywgJy1waHQnLCAnMS4wJywgJy1waCcsICc3LjQnLCAnLXRuJywgJzgnLCAnLW1hJywgJzUwMCcsICctaW1hZScsICc8aW5maWxlLm1hZT4nLCAnLW9tYWUnLCAnPG91dGZpbGUubWFlPic=

>  <s_epik_input>  (1) 
W0NIMl0xW0NIMl1DKFtDSDNdKT1OQyg9TylbQ0BIXTFPW0NAQEhdKE9bQ0gzXSlOKFtOSF1DKD1PKU9bQ0gzXSlbQ0gyXVtDQEBIXTJbQ0gyXVtOSF0y

>  <s_glide_docking_method>  (1) 
confgen

>  <s_i_glide_gridfile>  (1) 
gpcr_drd2_6luq_protein_autoprepared_prepared

>  <s_lp_Force_Field>  (1) 
S-OPLS

>  <s_lp_Variant>  (1) 
DiffSBDD_42_num_sample_100-1

>  <s_m_source_file>  (1) 
generated__ligand_DiffSBDD_2026-05-06_prepared.sdf

>  <GenAI_Model>  (1) 
DiffSBDD

>  <Protein>  (1) 
generic_title2

$$$$
DiffSBDD_10_num_sample_100
     RDKit          3D

  0  0  0  0  0  0  0  0  0  0999 V3000
M  V30 BEGIN CTAB
M  V30 COUNTS 71 74 0 0 1
M  V30 BEGIN ATOM
M  V30 1 Cl 3.434835 9.921510 -21.672906 0
M  V30 2 C 7.344146 4.160667 -13.333868 0 CFG=1
M  V30 3 O 7.613676 3.642707 -17.661027 0
M  V30 4 C 7.088887 4.121422 -19.974844 0 CFG=1
M  V30 5 C 6.307684 4.345456 -12.236751 0
M  V30 6 C 9.506864 5.522662 -11.383405 0
M  V30 7 C 7.434844 4.969305 -10.020957 0
M  V30 8 C 8.957352 4.868158 -16.070576 0
M  V30 9 C 5.680800 4.525257 -19.473780 0
M  V30 10 C 8.692217 6.278987 -12.462017 0
M  V30 11 C 5.835111 7.364657 -19.968865 0
M  V30 12 C 8.447067 3.471882 -16.511195 0 CFG=1
M  V30 13 C 6.659090 4.592350 -11.003845 0
M  V30 14 N 6.911298 1.577655 -16.003477 0
M  V30 15 C 7.105255 1.493699 -20.613929 0 CFG=2
M  V30 16 N 6.326330 1.169590 -19.410064 0
M  V30 17 O 6.909267 3.300171 -22.196092 0
M  V30 18 C 6.755922 -0.783249 -16.568296 0
M  V30 19 C 7.082841 7.554176 -20.582149 0
M  V30 20 C 7.689864 0.433533 -16.441094 0
M  V30 21 C 8.573107 1.021110 -20.521848 0
M  V30 22 N 8.790073 5.230599 -10.139505 0
M  V30 23 C 6.707931 3.509400 -14.573973 0
M  V30 24 C 8.178753 5.435257 -13.670401 0 CFG=1
M  V30 25 C 8.148690 3.884442 -18.881391 0
M  V30 26 S 5.628050 6.169160 -18.686071 0
M  V30 27 C 6.140978 -0.264030 -19.254853 0
M  V30 28 C 9.352432 5.040949 -14.591541 0
M  V30 29 C 6.043989 9.259812 -21.930152 0
M  V30 30 C 4.830555 9.001103 -21.254339 0
M  V30 31 F 8.365343 8.745829 -22.207655 0
M  V30 32 C 7.035444 2.982986 -21.014707 0
M  V30 33 C 7.684223 2.669529 -15.422671 0 CFG=2
M  V30 34 C 7.185381 8.521706 -21.585018 0
M  V30 35 S 5.323677 -0.550455 -17.671207 0
M  V30 36 O 9.354379 3.925374 -19.128147 0
M  V30 37 N 4.719598 8.058757 -20.283571 0
M  V30 38 H 8.032120 3.427259 -12.907958 0
M  V30 39 H 7.472929 4.958796 -20.549520 0
M  V30 40 H 5.272711 4.193008 -12.504613 0
M  V30 41 H 10.337631 6.169291 -11.101763 0
M  V30 42 H 9.944276 4.608093 -11.784821 0
M  V30 43 H 7.050833 5.184184 -9.037754 0
M  V30 44 H 8.215531 5.626795 -16.323162 0
M  V30 45 H 9.823557 5.112784 -16.686110 0
M  V30 46 H 4.969591 4.532830 -20.300960 0
M  V30 47 H 5.304031 3.792583 -18.760609 0
M  V30 48 H 7.871830 6.833903 -12.004395 0
M  V30 49 H 9.330587 7.071954 -12.843191 0
M  V30 50 H 9.308843 2.865692 -16.795769 0
M  V30 51 H 6.358584 1.914420 -16.780923 0
M  V30 52 H 6.652157 0.948584 -21.443581 0
M  V30 53 H 5.401183 1.573606 -19.455356 0
M  V30 54 H 6.362627 -1.030701 -15.581677 0
M  V30 55 H 7.320801 -1.649397 -16.912047 0
M  V30 56 H 7.943457 6.975214 -20.284289 0
M  V30 57 H 8.463502 0.204079 -15.707919 0
M  V30 58 H 8.192070 0.655521 -17.382049 0
M  V30 59 H 9.198138 1.498837 -21.277774 0
M  V30 60 H 8.655574 -0.052681 -20.688216 0
M  V30 61 H 9.013389 1.234201 -19.548168 0
M  V30 62 H 9.173597 5.719705 -9.342904 0
M  V30 63 H 5.922392 2.848517 -14.207127 0
M  V30 64 H 6.227257 4.269243 -15.186617 0
M  V30 65 H 7.529872 6.116676 -14.222545 0
M  V30 66 H 5.508632 -0.640590 -20.060116 0
M  V30 67 H 7.076611 -0.821307 -19.273120 0
M  V30 68 H 9.834839 4.169309 -14.181303 0
M  V30 69 H 10.151027 5.769300 -14.547650 0
M  V30 70 H 6.093511 10.016425 -22.699372 0
M  V30 71 H 8.398198 2.215414 -14.738029 0
M  V30 END ATOM
M  V30 BEGIN BOND
M  V30 1 1 5 2
M  V30 2 1 9 4
M  V30 3 1 10 6
M  V30 4 1 12 3
M  V30 5 1 12 8
M  V30 6 2 13 5
M  V30 7 2 13 7
M  V30 8 1 16 15
M  V30 9 2 19 11
M  V30 10 1 20 14
M  V30 11 1 20 18
M  V30 12 1 21 15
M  V30 13 1 22 6
M  V30 14 1 22 7
M  V30 15 1 23 2
M  V30 16 1 24 2
M  V30 17 1 24 10
M  V30 18 1 25 3
M  V30 19 1 25 4
M  V30 20 1 26 9
M  V30 21 1 26 11
M  V30 22 1 27 16
M  V30 23 1 28 8
M  V30 24 1 28 24
M  V30 25 1 30 1
M  V30 26 1 30 29
M  V30 27 1 32 4
M  V30 28 1 32 15
M  V30 29 2 32 17
M  V30 30 1 33 12
M  V30 31 1 33 14
M  V30 32 1 33 23
M  V30 33 1 34 19
M  V30 34 2 34 29
M  V30 35 1 34 31
M  V30 36 1 35 18
M  V30 37 1 35 27
M  V30 38 2 36 25
M  V30 39 1 37 11
M  V30 40 2 37 30
M  V30 41 1 2 38 CFG=1
M  V30 42 1 4 39 CFG=3
M  V30 43 1 40 5
M  V30 44 1 41 6
M  V30 45 1 42 6
M  V30 46 1 43 7
M  V30 47 1 44 8
M  V30 48 1 45 8
M  V30 49 1 46 9
M  V30 50 1 47 9
M  V30 51 1 48 10
M  V30 52 1 49 10
M  V30 53 1 12 50 CFG=3
M  V30 54 1 51 14
M  V30 55 1 15 52 CFG=3
M  V30 56 1 53 16
M  V30 57 1 54 18
M  V30 58 1 55 18
M  V30 59 1 56 19
M  V30 60 1 57 20
M  V30 61 1 58 20
M  V30 62 1 59 21
M  V30 63 1 60 21
M  V30 64 1 61 21
M  V30 65 1 62 22
M  V30 66 1 63 23
M  V30 67 1 64 23
M  V30 68 1 24 65 CFG=3
M  V30 69 1 66 27
M  V30 70 1 67 27
M  V30 71 1 68 28
M  V30 72 1 69 28
M  V30 73 1 70 29
M  V30 74 1 33 71 CFG=1
M  V30 END BOND
M  V30 END CTAB
M  END
>  <i_epik_Tot_Q>  (1) 
0

>  <i_epik_Tot_abs_Q>  (1) 
0

>  <i_i_glide_confnum>  (1) 
15

>  <i_i_glide_lignum>  (1) 
17

>  <i_i_glide_posenum>  (1) 
291

>  <i_i_glide_rotatable_bonds>  (1) 
3

>  <i_lp_mmshare_version>  (1) 
72125

>  <i_m_source_file_index>  (1) 
11

>  <i_f3d_flags>  (1) 
0

>  <num_sample>  (1) 
100

>  <b_lp_Chiralities_Consistent>  (1) 
1

>  <r_epik_Charging_Adjusted_Penalty>  (1) 
1.3520569381630938

>  <r_epik_Ionization_Penalty>  (1) 
1.3561301993789512

>  <r_epik_Ionization_Penalty_Charging>  (1) 
0

>  <r_epik_Ionization_Penalty_Neutral>  (1) 
1.3561301993789512

>  <r_epik_State_Penalty>  (1) 
1.3520569381630938

>  <r_glide_ring_energy>  (1) 
0

>  <r_i_docking_score>  (1) 
-2.7811764417971681

>  <r_i_glide_ecoul>  (1) 
-0.18984453299202372

>  <r_i_glide_eff_state_penalty>  (1) 
1.3520569381630938

>  <r_i_glide_einternal>  (1) 
0.79575633268601842

>  <r_i_glide_emodel>  (1) 
-43.89724236195044

>  <r_i_glide_emodel_strain>  (1) 
0.19903164624292913

>  <r_i_glide_energy>  (1) 
-36.927889160838355

>  <r_i_glide_erotb>  (1) 
0.10399733719332836

>  <r_i_glide_esite>  (1) 
-0.036900219343172731

>  <r_i_glide_evdw>  (1) 
-36.738044627846328

>  <r_i_glide_gscore>  (1) 
-4.1332333799602621

>  <r_i_glide_gscore_strain>  (1) 
0

>  <r_i_glide_hbond>  (1) 
0

>  <r_i_glide_ligand_efficiency>  (1) 
-0.075166930859382919

>  <r_i_glide_ligand_efficiency_ln>  (1) 
-0.60317197019936675

>  <r_i_glide_ligand_efficiency_sa>  (1) 
-0.25047288953079633

>  <r_i_glide_lipo>  (1) 
-2.1671919944091909

>  <r_i_glide_metal>  (1) 
-0

>  <r_i_glide_rewards>  (1) 
-0.16775959206010782

>  <r_lp_Energy>  (1) 
32.404224999999997

>  <r_lp_tautomer_probability>  (1) 
0.99999998000000012

>  <s_epik_Chemistry_Notes>  (1) 
This compound has an ester and may undergo hydrolysis at high or low pH. This compound contains an acetal/aminal-like group ( X-CH(R)-Y where X, Y are N, S, or O) that may be acid/base labile, releasing an aldehyde.

>  <s_epik_cmdline>  (1) 
J2VwaWtfcHl0aG9uJywgJy1waHQnLCAnMS4wJywgJy1waCcsICc3LjQnLCAnLXRuJywgJzgnLCAnLW1hJywgJzUwMCcsICctaW1hZScsICc8aW5maWxlLm1hZT4nLCAnLW9tYWUnLCAnPG91dGZpbGUubWFlPic=

>  <s_epik_input>  (1) 
Q2xjKG4xKVtjSF1jKEYpW2NIXWMxU1tDSDJdW0NAQEhdKEMoTzIpPU8pQyg9TylbQ0BASF0oW0NIM10pW05IXVtDSDJdU1tDSDJdW0NIMl1bTkhdW0NASF0oW0NIMl0zKVtDQEBIXTJbQ0gyXVtDSDJdW0NAQEhdKFtDQEhdMzQpW0NIMl1bQ0gyXVtOSF1bQ0hdPUM9W0NIXTQ=

>  <s_glide_docking_method>  (1) 
confgen

>  <s_i_glide_gridfile>  (1) 
gpcr_drd2_6luq_protein_autoprepared_prepared

>  <s_lp_Force_Field>  (1) 
S-OPLS

>  <s_lp_Variant>  (1) 
DiffSBDD_10_num_sample_100-2

>  <s_m_source_file>  (1) 
generated__ligand_DiffSBDD_2026-05-06_prepared.sdf

>  <GenAI_Model>  (1) 
DiffSBDD

>  <Protein>  (1) 
generic_title2

$$$$
DiffSBDD_7_num_sample_100
     RDKit          3D

  0  0  0  0  0  0  0  0  0  0999 V3000
M  V30 BEGIN CTAB
M  V30 COUNTS 61 65 0 0 1
M  V30 BEGIN ATOM
M  V30 1 C 17.270863 2.343133 -22.716424 0 CFG=1
M  V30 2 C 13.084993 0.784308 -20.704423 0
M  V30 3 C 13.562003 0.584357 -19.390754 0
M  V30 4 O 17.857077 1.390879 -21.826354 0
M  V30 5 C 15.062786 4.098656 -20.190505 0 CFG=2
M  V30 6 C 15.469637 9.516586 -19.303373 0
M  V30 7 F 12.001878 -0.230518 -17.858940 0
M  V30 8 C 14.674663 7.223876 -18.573578 0
M  V30 9 C 17.130875 6.610813 -19.050277 0 CFG=2
M  V30 10 C 12.661308 0.873032 -18.200615 0
M  V30 11 C 17.263045 0.855610 -23.023713 0 CFG=1
M  V30 12 C 19.155008 8.154589 -19.472865 0
M  V30 13 F 13.386984 1.293757 -17.164093 0
M  V30 14 C 15.540414 4.129887 -22.593142 0 CFG=1
M  V30 15 C 13.757391 4.433562 -20.957429 0
M  V30 16 N 16.045002 2.867938 -22.082835 0 CFG=2 CHG=1
M  V30 17 C 14.043140 4.263544 -22.468165 0
M  V30 18 C 17.501141 6.187230 -17.604450 0
M  V30 19 O 17.442264 4.967944 -17.336849 0
M  V30 20 C 17.618208 8.021752 -19.521580 0 CFG=2
M  V30 21 F 11.775687 1.822538 -18.502704 0
M  V30 22 O 17.834844 7.089138 -16.808459 0 CHG=-1
M  V30 23 C 14.878257 0.119465 -19.184934 0
M  V30 24 C 15.717628 -0.132858 -20.286896 0
M  V30 25 C 16.159658 -0.181177 -22.786692 0
M  V30 26 O 17.130644 9.455615 -17.552985 0
M  V30 27 C 15.244893 0.078263 -21.599016 0
M  V30 28 C 15.640716 6.344977 -19.386662 0 CFG=1
M  V30 29 C 14.486332 8.612327 -19.147342 0
M  V30 30 C 13.924415 0.531614 -21.806767 0
M  V30 31 O 15.296380 4.986900 -19.101901 0
M  V30 32 C 16.156542 4.043375 -21.235538 0 CFG=2
M  V30 33 C 16.929401 9.290009 -18.936292 0 CFG=2
M  V30 34 H 17.967007 3.043843 -23.175623 0
M  V30 35 H 12.075922 1.135115 -20.865130 0
M  V30 36 H 14.972538 3.105671 -19.750013 0
M  V30 37 H 15.228371 10.485704 -19.717460 0
M  V30 38 H 14.966822 7.293080 -17.525236 0
M  V30 39 H 13.687858 6.759883 -18.573597 0
M  V30 40 H 17.698921 5.911053 -19.659267 0
M  V30 41 H 17.979558 0.554804 -23.784124 0
M  V30 42 H 19.530289 8.202459 -18.450242 0
M  V30 43 H 19.638436 7.310428 -19.964482 0
M  V30 44 H 19.485972 9.060514 -19.981395 0
M  V30 45 H 16.071809 4.465225 -23.482418 0
M  V30 46 H 12.931853 3.801738 -20.628561 0
M  V30 47 H 13.449727 5.461095 -20.765981 0
M  V30 48 H 13.548513 3.386052 -22.884730 0
M  V30 49 H 13.702302 5.136361 -23.025888 0
M  V30 50 H 17.387860 8.051828 -20.587048 0
M  V30 51 H 15.244437 -0.040669 -18.180340 0
M  V30 52 H 16.726574 -0.484821 -20.125647 0
M  V30 53 H 15.571991 -0.269129 -23.700591 0
M  V30 54 H 16.631083 -1.154344 -22.639829 0
M  V30 55 H 17.385812 8.595454 -17.195281 0
M  V30 56 H 15.480580 6.546074 -20.446431 0
M  V30 57 H 13.479478 8.876134 -19.437587 0
M  V30 58 H 13.556428 0.689509 -22.811861 0
M  V30 59 H 17.201756 4.229432 -20.998821 0
M  V30 60 H 17.429820 10.146973 -19.390944 0
M  V30 61 H 15.344158 2.203863 -21.781602 0
M  V30 END ATOM
M  V30 BEGIN BOND
M  V30 1 2 3 2
M  V30 2 1 4 1
M  V30 3 1 10 3
M  V30 4 1 10 7
M  V30 5 1 11 1
M  V30 6 1 11 4
M  V30 7 1 13 10
M  V30 8 1 15 5
M  V30 9 1 16 1
M  V30 10 1 16 14
M  V30 11 1 17 14
M  V30 12 1 17 15
M  V30 13 1 18 9
M  V30 14 2 19 18
M  V30 15 1 20 9
M  V30 16 1 20 12
M  V30 17 1 21 10
M  V30 18 1 22 18
M  V30 19 1 23 3
M  V30 20 2 24 23
M  V30 21 1 25 11
M  V30 22 1 27 24
M  V30 23 1 27 25
M  V30 24 1 28 8
M  V30 25 1 28 9
M  V30 26 2 29 6
M  V30 27 1 29 8
M  V30 28 1 30 2
M  V30 29 2 30 27
M  V30 30 1 31 5
M  V30 31 1 31 28
M  V30 32 1 32 5
M  V30 33 1 32 14
M  V30 34 1 32 16
M  V30 35 1 33 6
M  V30 36 1 33 20
M  V30 37 1 33 26
M  V30 38 1 1 34 CFG=3
M  V30 39 1 35 2
M  V30 40 1 5 36 CFG=1
M  V30 41 1 37 6
M  V30 42 1 38 8
M  V30 43 1 39 8
M  V30 44 1 9 40 CFG=3
M  V30 45 1 11 41 CFG=3
M  V30 46 1 42 12
M  V30 47 1 43 12
M  V30 48 1 44 12
M  V30 49 1 14 45 CFG=3
M  V30 50 1 46 15
M  V30 51 1 47 15
M  V30 52 1 48 17
M  V30 53 1 49 17
M  V30 54 1 20 50 CFG=3
M  V30 55 1 51 23
M  V30 56 1 52 24
M  V30 57 1 53 25
M  V30 58 1 54 25
M  V30 59 1 55 26
M  V30 60 1 28 56 CFG=3
M  V30 61 1 57 29
M  V30 62 1 58 30
M  V30 63 1 32 59 CFG=1
M  V30 64 1 33 60 CFG=3
M  V30 65 1 16 61 CFG=1
M  V30 END BOND
M  V30 END CTAB
M  END
>  <i_epik_Tot_Q>  (1) 
0

>  <i_epik_Tot_abs_Q>  (1) 
2

>  <i_i_glide_confnum>  (1) 
142

>  <i_i_glide_lignum>  (1) 
13

>  <i_i_glide_posenum>  (1) 
269

>  <i_i_glide_rotatable_bonds>  (1) 
8

>  <i_lp_mmshare_version>  (1) 
72125

>  <i_m_source_file_index>  (1) 
8

>  <i_f3d_flags>  (1) 
2

>  <num_sample>  (1) 
100

>  <b_lp_Chiralities_Consistent>  (1) 
0

>  <r_epik_Charging_Adjusted_Penalty>  (1) 
0.97984479296791849

>  <r_epik_Ionization_Penalty>  (1) 
0.49008068678085143

>  <r_epik_Ionization_Penalty_Charging>  (1) 
0.49008059146589078

>  <r_epik_Ionization_Penalty_Neutral>  (1) 
9.5314960655475233e-08

>  <r_epik_State_Penalty>  (1) 
0.48976420150202771

>  <r_glide_ring_energy>  (1) 
0.60475176529662833

>  <r_i_docking_score>  (1) 
-2.7765077801085938

>  <r_i_glide_ecoul>  (1) 
-5.083614118124876

>  <r_i_glide_eff_state_penalty>  (1) 
0.48976420150202771

>  <r_i_glide_einternal>  (1) 
5.3507324493060864

>  <r_i_glide_emodel>  (1) 
-29.920371874457256

>  <r_i_glide_emodel_strain>  (1) 
0.55373610376672389

>  <r_i_glide_energy>  (1) 
-27.287820172622347

>  <r_i_glide_erotb>  (1) 
0.46174917305607022

>  <r_i_glide_esite>  (1) 
0

>  <r_i_glide_evdw>  (1) 
-22.204206054497469

>  <r_i_glide_gscore>  (1) 
-3.2662719816106214

>  <r_i_glide_gscore_strain>  (1) 
0

>  <r_i_glide_hbond>  (1) 
-0.16

>  <r_i_glide_ligand_efficiency>  (1) 
-0.084136599397230116

>  <r_i_glide_ligand_efficiency_ln>  (1) 
-0.61748095430825212

>  <r_i_glide_ligand_efficiency_sa>  (1) 
-0.26987103097572179

>  <r_i_glide_lipo>  (1) 
-0.95379495151393734

>  <r_i_glide_metal>  (1) 
-0

>  <r_i_glide_rewards>  (1) 
-0.74147378270914921

>  <r_lp_Energy>  (1) 
40.093779999999995

>  <s_epik_Chemistry_Notes>  (1) 
This compound contains an acetal/aminal-like group ( X-CH(R)-Y where X, Y are N, S, or O) that may be acid/base labile, releasing an aldehyde.

>  <s_epik_cmdline>  (1) 
J2VwaWtfcHl0aG9uJywgJy1waHQnLCAnMS4wJywgJy1waCcsICc3LjQnLCAnLXRuJywgJzgnLCAnLW1hJywgJzUwMCcsICctaW1hZScsICc8aW5maWxlLm1hZT4nLCAnLW9tYWUnLCAnPG91dGZpbGUubWFlPic=

>  <s_epik_input>  (1) 
RkMoRikoRiljMVtjSF1bY0hdYyhbY0hdW2NIXTEpW0NIMl1bQ0BASF0yT1tDSF0yTjNbQ0BASF0oW0NASF0zNClbQ0BIXShbQ0gyXVtDSDJdNClPW0NASF01W0NIMl1bQ0hdPVtDSF1bQ0BASF0oW09IXSlbQ0BASF0oW0NIM10pW0NASF01Qyg9TylbT0hd

>  <s_glide_docking_method>  (1) 
confgen

>  <s_i_glide_gridfile>  (1) 
gpcr_drd2_6luq_protein_autoprepared_prepared

>  <s_lp_Force_Field>  (1) 
S-OPLS

>  <s_lp_Variant>  (1) 
DiffSBDD_7_num_sample_100-2

>  <s_m_source_file>  (1) 
generated__ligand_DiffSBDD_2026-05-06_prepared.sdf

>  <GenAI_Model>  (1) 
DiffSBDD

>  <Protein>  (1) 
generic_title2

$$$$
DiffSBDD_66_num_sample_100
     RDKit          3D

  0  0  0  0  0  0  0  0  0  0999 V3000
M  V30 BEGIN CTAB
M  V30 COUNTS 88 91 0 0 1
M  V30 BEGIN ATOM
M  V30 1 C 6.090455 6.846688 -12.269323 0
M  V30 2 F 9.888588 4.612556 -19.480885 0
M  V30 3 C 8.598361 6.607633 -13.112508 0 CFG=1
M  V30 4 N 9.299359 6.387619 -10.174656 0
M  V30 5 C 10.158547 7.471241 -8.135591 0
M  V30 6 F 11.034295 6.569331 -13.092906 0
M  V30 7 O 5.654552 7.283781 -20.364923 0
M  V30 8 N 10.770033 6.208672 -6.165368 0
M  V30 9 O 9.478080 4.601696 -17.280707 0
M  V30 10 C 10.261773 6.969289 -10.999912 0
M  V30 11 O 11.286338 8.367951 -6.258749 0
M  V30 12 C 8.859362 5.368581 -14.074983 0
M  V30 13 C 11.616011 7.893219 -4.924368 0
M  V30 14 C 7.810928 4.326600 -14.515522 0
M  V30 15 O 11.434616 9.369203 -8.954288 0
M  V30 16 C 9.434830 6.308761 -8.779971 0
M  V30 17 O 11.358408 7.369302 -10.597298 0
M  V30 18 C 10.113983 8.848708 -8.778548 0
M  V30 19 C 7.895258 2.963689 -13.837898 0
M  V30 20 C 6.753464 6.917081 -20.773225 0
M  V30 21 C 11.321342 6.344129 -4.859497 0
M  V30 22 O 5.834809 3.567843 -10.692461 0
M  V30 23 C 6.609192 5.423742 -17.823555 0
M  V30 24 C 9.920169 7.580445 -21.247877 0
M  V30 25 C 8.901602 4.500292 -18.558670 0 CFG=1
M  V30 26 O 8.898698 5.398898 -8.137617 0
M  V30 27 C 7.595343 6.692513 -11.946527 0 CFG=2
M  V30 28 N 7.459839 7.641301 -21.672778 0
M  V30 29 C 5.486904 6.558898 -15.878544 0 CFG=2
M  V30 30 C 8.146761 4.299340 -11.168007 0
M  V30 31 C 6.784631 2.681172 -12.825306 0 CFG=1
M  V30 32 O 5.106761 7.664682 -16.718084 0
M  V30 33 C 6.803746 1.192160 -12.432650 0
M  V30 34 C 6.902120 4.540848 -15.485271 0
M  V30 35 C 7.830300 5.599443 -18.774032 0 CFG=1
M  V30 36 C 8.069402 5.779356 -10.790580 0 CFG=1
M  V30 37 C 9.954700 7.085477 -12.498813 0 CFG=2
M  V30 38 C 10.714801 7.315546 -6.906523 0
M  V30 39 C 8.768184 7.257441 -22.208446 0
M  V30 40 C 5.513486 7.988005 -15.395961 0
M  V30 41 C 6.739891 5.813768 -16.314144 0 CFG=1
M  V30 42 C 6.783263 3.769165 -11.719403 0 CFG=1
M  V30 43 C 7.357800 5.584222 -20.263119 0
M  V30 44 H 5.798971 6.344907 -13.188912 0
M  V30 45 H 5.472795 6.469919 -11.451959 0
M  V30 46 H 5.815529 7.892965 -12.382550 0
M  V30 47 H 8.234714 7.380499 -13.790457 0
M  V30 48 H 10.281143 5.359696 -6.429799 0
M  V30 49 H 8.806562 4.422974 -16.639321 0
M  V30 50 H 9.295121 5.769194 -14.986765 0
M  V30 51 H 9.692576 4.781513 -13.690972 0
M  V30 52 H 12.634835 8.169388 -4.668163 0
M  V30 53 H 11.034796 8.453271 -4.206421 0
M  V30 54 H 11.867687 8.799496 -9.579678 0
M  V30 55 H 9.564715 9.369287 -8.004325 0
M  V30 56 H 9.468591 8.979409 -9.647190 0
M  V30 57 H 7.809667 2.221113 -14.634488 0
M  V30 58 H 8.873972 2.766968 -13.412980 0
M  V30 59 H 12.232831 5.758831 -4.758033 0
M  V30 60 H 10.609119 6.080944 -4.075374 0
M  V30 61 H 5.836868 4.306771 -10.099041 0
M  V30 62 H 6.237683 4.402809 -17.923313 0
M  V30 63 H 5.799457 6.008502 -18.247278 0
M  V30 64 H 10.879186 7.350116 -21.709314 0
M  V30 65 H 9.928053 8.637429 -20.984099 0
M  V30 66 H 9.860574 7.009846 -20.325026 0
M  V30 67 H 8.451987 3.513275 -18.659598 0
M  V30 68 H 7.739112 7.694977 -11.535784 0
M  V30 69 H 7.060953 8.505573 -22.008030 0
M  V30 70 H 4.636959 5.936275 -15.609745 0
M  V30 71 H 8.437582 3.769281 -10.291395 0
M  V30 72 H 8.994090 4.126155 -11.812585 0
M  V30 73 H 5.834866 2.798169 -13.348944 0
M  V30 74 H 7.817296 0.849034 -12.233312 0
M  V30 75 H 6.169174 0.969346 -11.576109 0
M  V30 76 H 6.437601 0.582575 -13.261337 0
M  V30 77 H 6.235935 3.736759 -15.721669 0
M  V30 78 H 8.290482 6.568560 -18.577003 0
M  V30 79 H 7.283836 5.769321 -10.031638 0
M  V30 80 H 10.017959 8.155315 -12.691651 0
M  V30 81 H 8.800534 6.230455 -22.568876 0
M  V30 82 H 8.911934 7.855261 -23.109516 0
M  V30 83 H 4.707905 8.343454 -14.758855 0
M  V30 84 H 6.463398 8.515640 -15.345223 0
M  V30 85 H 7.569412 6.489964 -16.164480 0
M  V30 86 H 6.314421 4.535870 -12.292546 0
M  V30 87 H 8.130381 5.194932 -20.915324 0
M  V30 88 H 6.570757 4.834931 -20.363474 0
M  V30 END ATOM
M  V30 BEGIN BOND
M  V30 1 1 10 4
M  V30 2 1 12 3
M  V30 3 1 13 11
M  V30 4 1 14 12
M  V30 5 1 16 4
M  V30 6 1 16 5
M  V30 7 2 17 10
M  V30 8 1 18 5
M  V30 9 1 18 15
M  V30 10 1 19 14
M  V30 11 2 20 7
M  V30 12 1 21 8
M  V30 13 1 21 13
M  V30 14 1 25 2
M  V30 15 1 25 9
M  V30 16 2 26 16
M  V30 17 1 27 1
M  V30 18 1 27 3
M  V30 19 1 28 20
M  V30 20 1 31 19
M  V30 21 1 32 29
M  V30 22 1 33 31
M  V30 23 2 34 14
M  V30 24 1 35 23
M  V30 25 1 35 25
M  V30 26 1 36 4
M  V30 27 1 36 27
M  V30 28 1 36 30
M  V30 29 1 37 3
M  V30 30 1 37 6
M  V30 31 1 37 10
M  V30 32 2 38 5
M  V30 33 1 38 8
M  V30 34 1 38 11
M  V30 35 1 39 24
M  V30 36 1 39 28
M  V30 37 1 40 29
M  V30 38 1 40 32
M  V30 39 1 41 23
M  V30 40 1 41 29
M  V30 41 1 41 34
M  V30 42 1 42 22
M  V30 43 1 42 30
M  V30 44 1 42 31
M  V30 45 1 43 20
M  V30 46 1 43 35
M  V30 47 1 44 1
M  V30 48 1 45 1
M  V30 49 1 46 1
M  V30 50 1 3 47 CFG=3
M  V30 51 1 48 8
M  V30 52 1 49 9
M  V30 53 1 50 12
M  V30 54 1 51 12
M  V30 55 1 52 13
M  V30 56 1 53 13
M  V30 57 1 54 15
M  V30 58 1 55 18
M  V30 59 1 56 18
M  V30 60 1 57 19
M  V30 61 1 58 19
M  V30 62 1 59 21
M  V30 63 1 60 21
M  V30 64 1 61 22
M  V30 65 1 62 23
M  V30 66 1 63 23
M  V30 67 1 64 24
M  V30 68 1 65 24
M  V30 69 1 66 24
M  V30 70 1 25 67 CFG=1
M  V30 71 1 27 68 CFG=1
M  V30 72 1 69 28
M  V30 73 1 29 70 CFG=1
M  V30 74 1 71 30
M  V30 75 1 72 30
M  V30 76 1 31 73 CFG=3
M  V30 77 1 74 33
M  V30 78 1 75 33
M  V30 79 1 76 33
M  V30 80 1 77 34
M  V30 81 1 35 78 CFG=1
M  V30 82 1 36 79 CFG=1
M  V30 83 1 37 80 CFG=3
M  V30 84 1 81 39
M  V30 85 1 82 39
M  V30 86 1 83 40
M  V30 87 1 84 40
M  V30 88 1 41 85 CFG=3
M  V30 89 1 42 86 CFG=3
M  V30 90 1 87 43
M  V30 91 1 88 43
M  V30 END BOND
M  V30 END CTAB
M  END
>  <i_epik_Tot_Q>  (1) 
0

>  <i_epik_Tot_abs_Q>  (1) 
0

>  <i_i_glide_confnum>  (1) 
1018

>  <i_i_glide_lignum>  (1) 
130

>  <i_i_glide_posenum>  (1) 
21

>  <i_i_glide_rotatable_bonds>  (1) 
15

>  <i_lp_mmshare_version>  (1) 
72125

>  <i_m_source_file_index>  (1) 
67

>  <i_f3d_flags>  (1) 
0

>  <num_sample>  (1) 
100

>  <b_lp_Chiralities_Consistent>  (1) 
1

>  <r_epik_Charging_Adjusted_Penalty>  (1) 
0.011224841026204068

>  <r_epik_Ionization_Penalty>  (1) 
0.011270599783865109

>  <r_epik_Ionization_Penalty_Charging>  (1) 
8.5422756824624084e-11

>  <r_epik_Ionization_Penalty_Neutral>  (1) 
0.011270599698442352

>  <r_epik_State_Penalty>  (1) 
0.01122484094078131

>  <r_glide_ring_energy>  (1) 
0

>  <r_i_docking_score>  (1) 
-2.7735862742338515

>  <r_i_glide_ecoul>  (1) 
-4.1968214165672197

>  <r_i_glide_eff_state_penalty>  (1) 
0.01122484094078131

>  <r_i_glide_einternal>  (1) 
17.156835044206044

>  <r_i_glide_emodel>  (1) 
-20.023976404736402

>  <r_i_glide_emodel_strain>  (1) 
6.5050497553877449

>  <r_i_glide_energy>  (1) 
-30.618163364602204

>  <r_i_glide_erotb>  (1) 
0.43215163049877869

>  <r_i_glide_esite>  (1) 
-0.21912125478557587

>  <r_i_glide_evdw>  (1) 
-26.421341948034982

>  <r_i_glide_gscore>  (1) 
-2.7848111151746329

>  <r_i_glide_gscore_strain>  (1) 
0.62626243884693622

>  <r_i_glide_hbond>  (1) 
-0.11398064286619823

>  <r_i_glide_ligand_efficiency>  (1) 
-0.064502006377531437

>  <r_i_glide_ligand_efficiency_ln>  (1) 
-0.58253931925518831

>  <r_i_glide_ligand_efficiency_sa>  (1) 
-0.22597620403409577

>  <r_i_glide_lipo>  (1) 
-2.2725163126446901

>  <r_i_glide_metal>  (1) 
-0

>  <r_i_glide_rewards>  (1) 
0.71298333566294869

>  <r_lp_Energy>  (1) 
55.849022999999995

>  <r_lp_tautomer_probability>  (1) 
0.49997499999946832

>  <s_epik_Chemistry_Notes>  (1) 
This compound has an imine and may undergo hydrolysis.

>  <s_epik_cmdline>  (1) 
J2VwaWtfcHl0aG9uJywgJy1waHQnLCAnMS4wJywgJy1waCcsICc3LjQnLCAnLXRuJywgJzgnLCAnLW1hJywgJzUwMCcsICctaW1hZScsICc8aW5maWxlLm1hZT4nLCAnLW9tYWUnLCAnPG91dGZpbGUubWFlPic=

>  <s_epik_input>  (1) 
TzFbQ0gyXVtDSDJdTj1DMVtDQEhdKFtDSDJdW09IXSlDKD1PKU4oQyg9TylbQ0BIXTJGKVtDQEBIXShbQ0BASF0zW0NIM10pW0NIMl1bQ0BIXShbT0hdKVtDQEhdKFtDSDNdKVtDSDJdQyhcW0NIMl1bQ0BIXTIzKT1bQ0hdXFtDQEhdKFtDQEBIXTRPW0NIMl00KVtDSDJdW0NAQEhdKFtDQEBIXShGKVtPSF0pW0NIMl1DKD1PKVtOSF1bQ0gyXVtDSDNd

>  <s_glide_docking_method>  (1) 
confgen

>  <s_i_glide_gridfile>  (1) 
gpcr_drd2_6luq_protein_autoprepared_prepared

>  <s_lp_Force_Field>  (1) 
S-OPLS

>  <s_lp_Variant>  (1) 
DiffSBDD_66_num_sample_100-2

>  <s_m_source_file>  (1) 
generated__ligand_DiffSBDD_2026-05-06_prepared.sdf

>  <GenAI_Model>  (1) 
DiffSBDD

>  <Protein>  (1) 
generic_title2

$$$$
DiffSBDD_67_num_sample_100
     RDKit          3D

  0  0  0  0  0  0  0  0  0  0999 V3000
M  V30 BEGIN CTAB
M  V30 COUNTS 79 83 0 0 1
M  V30 BEGIN ATOM
M  V30 1 C 9.201456 7.824085 -10.461725 0 CFG=2
M  V30 2 C 9.303474 6.078995 -8.414749 0 CFG=1
M  V30 3 C 9.414941 4.569020 -8.456801 0
M  V30 4 C 9.966709 6.564080 -7.097921 0 CFG=1
M  V30 5 C 9.181096 4.657984 -13.065439 0
M  V30 6 C 7.683805 6.610010 -12.183285 0
M  V30 7 C 9.799157 3.521784 -18.273965 0
M  V30 8 C 8.965350 1.305043 -17.671745 0
M  V30 9 C 11.913496 8.191946 -7.697826 0 CFG=2
M  V30 10 C 6.719855 3.812534 -18.805484 0
M  V30 11 C 8.847936 4.918402 -14.540803 0
M  V30 12 C 11.062536 2.969004 -18.556542 0
M  V30 13 C 7.466246 4.391018 -16.420190 0
M  V30 14 O 6.309310 4.995533 -18.805534 0 CHG=-1
M  V30 15 F 10.439390 -0.574940 -17.804173 0
M  V30 16 C 6.234054 4.025996 -13.404393 0
M  V30 17 O 6.638867 3.011902 -19.762518 0
M  V30 18 C 11.490282 6.792264 -7.190353 0
M  V30 19 C 10.792212 8.797236 -8.535687 0 CFG=2
M  V30 20 C 8.746008 2.690717 -17.829230 0
M  V30 21 C 9.586228 8.969301 -7.543379 0
M  V30 22 N 6.912386 4.186691 -12.094555 0 CFG=1 CHG=1
M  V30 23 C 7.078633 3.150419 -14.349474 0
M  V30 24 N 8.045337 3.876383 -15.177627 0
M  V30 25 C 9.303816 7.816634 -6.591337 0
M  V30 26 C 8.073186 5.115800 -12.093579 0 CFG=1
M  V30 27 C 8.261739 8.969194 -12.482429 0
M  V30 28 C 7.374717 3.290845 -17.507300 0 CFG=2
M  V30 29 O 13.106221 8.169304 -8.455815 0
M  V30 30 C 10.554348 7.983235 -9.821198 0 CFG=1
M  V30 31 C 9.856030 6.661131 -9.719590 0 CFG=2
M  V30 32 O 12.078599 3.774990 -18.981591 0
M  V30 33 C 11.278115 1.585276 -18.397960 0
M  V30 34 C 5.981759 4.402521 -10.958746 0
M  V30 35 C 10.229865 0.754328 -17.957043 0
M  V30 36 C 8.816074 7.649906 -11.941789 0 CFG=1
M  V30 37 H 8.634836 8.609593 -10.001865 0
M  V30 38 H 8.234836 6.291034 -8.382757 0
M  V30 39 H 10.439488 4.245160 -8.291710 0
M  V30 40 H 8.769131 4.113650 -7.712555 0
M  V30 41 H 9.117869 4.169316 -9.411327 0
M  V30 42 H 9.792550 5.801897 -6.337658 0
M  V30 43 H 9.436631 3.610708 -12.900633 0
M  V30 44 H 10.097109 5.199649 -12.828865 0
M  V30 45 H 7.224948 6.779954 -13.155630 0
M  V30 46 H 6.877702 6.838665 -11.491526 0
M  V30 47 H 9.636360 4.582868 -18.395874 0
M  V30 48 H 8.164649 0.665802 -17.330171 0
M  V30 49 H 12.880274 3.309388 -19.159723 0
M  V30 50 H 12.095392 8.836899 -6.836015 0
M  V30 51 H 9.779053 4.982487 -15.104018 0
M  V30 52 H 8.375080 5.889314 -14.662449 0
M  V30 53 H 8.093655 5.193996 -16.811580 0
M  V30 54 H 6.496567 4.847555 -16.218032 0
M  V30 55 H 5.296804 3.496320 -13.228997 0
M  V30 56 H 5.955730 4.982060 -13.848928 0
M  V30 57 H 11.960225 6.567460 -6.234807 0
M  V30 58 H 11.834802 6.066186 -7.890475 0
M  V30 59 H 11.121339 9.769299 -8.892468 0
M  V30 60 H 8.670210 9.310975 -8.023066 0
M  V30 61 H 9.855596 9.751906 -6.833296 0
M  V30 62 H 6.420369 2.575574 -14.996828 0
M  V30 63 H 7.613886 2.397582 -13.769971 0
M  V30 64 H 8.234846 7.676516 -6.455851 0
M  V30 65 H 9.703285 8.043169 -5.601277 0
M  V30 66 H 8.482192 4.979095 -11.114511 0
M  V30 67 H 7.462519 9.328136 -11.831073 0
M  V30 68 H 9.034712 9.727826 -12.555699 0
M  V30 69 H 7.834839 8.856636 -13.480394 0
M  V30 70 H 6.723576 2.490297 -17.156854 0
M  V30 71 H 13.303918 9.045556 -8.755304 0
M  V30 72 H 11.391804 8.022763 -10.515847 0
M  V30 73 H 10.234838 5.903154 -10.389399 0
M  V30 74 H 12.247004 1.160362 -18.612659 0
M  V30 75 H 5.304540 5.237282 -11.143433 0
M  V30 76 H 5.385323 3.508552 -10.784585 0
M  V30 77 H 6.525337 4.602942 -10.033315 0
M  V30 78 H 9.705366 7.382210 -12.510672 0
M  V30 79 H 7.323332 3.282611 -11.910789 0
M  V30 END ATOM
M  V30 BEGIN BOND
M  V30 1 1 3 2
M  V30 2 1 4 2
M  V30 3 1 11 5
M  V30 4 2 12 7
M  V30 5 1 14 10
M  V30 6 2 17 10
M  V30 7 1 18 4
M  V30 8 1 18 9
M  V30 9 1 19 9
M  V30 10 1 20 7
M  V30 11 2 20 8
M  V30 12 1 21 19
M  V30 13 1 22 16
M  V30 14 1 23 16
M  V30 15 1 24 11
M  V30 16 1 24 13
M  V30 17 1 24 23
M  V30 18 1 25 4
M  V30 19 1 25 21
M  V30 20 1 26 5
M  V30 21 1 26 6
M  V30 22 1 26 22
M  V30 23 1 28 10
M  V30 24 1 28 13
M  V30 25 1 28 20
M  V30 26 1 29 9
M  V30 27 1 30 1
M  V30 28 1 30 19
M  V30 29 1 31 1
M  V30 30 1 31 2
M  V30 31 1 31 30
M  V30 32 1 32 12
M  V30 33 1 33 12
M  V30 34 1 34 22
M  V30 35 1 35 8
M  V30 36 1 35 15
M  V30 37 2 35 33
M  V30 38 1 36 1
M  V30 39 1 36 6
M  V30 40 1 36 27
M  V30 41 1 1 37 CFG=1
M  V30 42 1 2 38 CFG=1
M  V30 43 1 39 3
M  V30 44 1 40 3
M  V30 45 1 41 3
M  V30 46 1 4 42 CFG=1
M  V30 47 1 43 5
M  V30 48 1 44 5
M  V30 49 1 45 6
M  V30 50 1 46 6
M  V30 51 1 47 7
M  V30 52 1 48 8
M  V30 53 1 49 32
M  V30 54 1 9 50 CFG=1
M  V30 55 1 51 11
M  V30 56 1 52 11
M  V30 57 1 53 13
M  V30 58 1 54 13
M  V30 59 1 55 16
M  V30 60 1 56 16
M  V30 61 1 57 18
M  V30 62 1 58 18
M  V30 63 1 19 59 CFG=3
M  V30 64 1 60 21
M  V30 65 1 61 21
M  V30 66 1 62 23
M  V30 67 1 63 23
M  V30 68 1 64 25
M  V30 69 1 65 25
M  V30 70 1 26 66 CFG=1
M  V30 71 1 67 27
M  V30 72 1 68 27
M  V30 73 1 69 27
M  V30 74 1 28 70 CFG=1
M  V30 75 1 71 29
M  V30 76 1 30 72 CFG=3
M  V30 77 1 31 73 CFG=3
M  V30 78 1 74 33
M  V30 79 1 75 34
M  V30 80 1 76 34
M  V30 81 1 77 34
M  V30 82 1 36 78 CFG=3
M  V30 83 1 22 79 CFG=1
M  V30 END BOND
M  V30 END CTAB
M  END
>  <i_epik_Tot_Q>  (1) 
0

>  <i_epik_Tot_abs_Q>  (1) 
2

>  <i_i_glide_confnum>  (1) 
544

>  <i_i_glide_lignum>  (1) 
135

>  <i_i_glide_posenum>  (1) 
346

>  <i_i_glide_rotatable_bonds>  (1) 
9

>  <i_lp_mmshare_version>  (1) 
72125

>  <i_m_source_file_index>  (1) 
68

>  <i_f3d_flags>  (1) 
0

>  <num_sample>  (1) 
100

>  <b_lp_Chiralities_Consistent>  (1) 
1

>  <r_epik_Charging_Adjusted_Penalty>  (1) 
1.0015811376701689

>  <r_epik_Ionization_Penalty>  (1) 
0.014205467742633596

>  <r_epik_Ionization_Penalty_Charging>  (1) 
0.0035901324651834211

>  <r_epik_Ionization_Penalty_Neutral>  (1) 
0.010615335277450176

>  <r_epik_State_Penalty>  (1) 
0.99799100520498552

>  <r_glide_ring_energy>  (1) 
2.3391533560646365

>  <r_i_docking_score>  (1) 
-2.7510413491221142

>  <r_i_glide_ecoul>  (1) 
-3.4406315530034304

>  <r_i_glide_eff_state_penalty>  (1) 
0.99799100520498552

>  <r_i_glide_einternal>  (1) 
10.260916902683867

>  <r_i_glide_emodel>  (1) 
-22.398140380883913

>  <r_i_glide_emodel_strain>  (1) 
2.5181830750018435

>  <r_i_glide_energy>  (1) 
-23.837056952929494

>  <r_i_glide_erotb>  (1) 
0.48522832276191719

>  <r_i_glide_esite>  (1) 
0

>  <r_i_glide_evdw>  (1) 
-20.396425399926063

>  <r_i_glide_gscore>  (1) 
-3.7490323543270998

>  <r_i_glide_gscore_strain>  (1) 
0

>  <r_i_glide_hbond>  (1) 
-0.0098348314471871316

>  <r_i_glide_ligand_efficiency>  (1) 
-0.076417815253392057

>  <r_i_glide_ligand_efficiency_ln>  (1) 
-0.600202897830452

>  <r_i_glide_ligand_efficiency_sa>  (1) 
-0.25232606648617073

>  <r_i_glide_lipo>  (1) 
-1.6563891490190883

>  <r_i_glide_metal>  (1) 
-0

>  <r_i_glide_rewards>  (1) 
-1.0321206936759237

>  <r_lp_Energy>  (1) 
48.201639999999998

>  <s_epik_cmdline>  (1) 
J2VwaWtfcHl0aG9uJywgJy1waHQnLCAnMS4wJywgJy1waCcsICc3LjQnLCAnLXRuJywgJzgnLCAnLW1hJywgJzUwMCcsICctaW1hZScsICc8aW5maWxlLm1hZT4nLCAnLW9tYWUnLCAnPG91dGZpbGUubWFlPic=

>  <s_epik_input>  (1) 
W0NIM11bQ0BASF0oW0NAQEhdMTIpW0NAQEhdM1tDQEhdKFtDQEhdKFtDQEBIXShbQ0gyXTEpW09IXSlbQ0gyXVtDSDJdMilbQ0BIXTNbQ0BIXShbQ0gzXSlbQ0gyXVtDQEBIXTRbQ0gyXVtDSDJdTihbQ0gyXVtDSDJdTjRbQ0gzXSlbQ0gyXVtDQEBIXShDKD1PKVtPSF0pQyg9W0NIXUM1PU8pW0NIMl1DKEYpPVtDSF01

>  <s_glide_docking_method>  (1) 
confgen

>  <s_i_glide_gridfile>  (1) 
gpcr_drd2_6luq_protein_autoprepared_prepared

>  <s_lp_Force_Field>  (1) 
S-OPLS

>  <s_lp_Variant>  (1) 
DiffSBDD_67_num_sample_100-3

>  <s_m_source_file>  (1) 
generated__ligand_DiffSBDD_2026-05-06_prepared.sdf

>  <GenAI_Model>  (1) 
DiffSBDD

>  <Protein>  (1) 
generic_title2

$$$$
DiffSBDD_92_num_sample_100
     RDKit          3D

  0  0  0  0  0  0  0  0  0  0999 V3000
M  V30 BEGIN CTAB
M  V30 COUNTS 66 68 0 0 1
M  V30 BEGIN ATOM
M  V30 1 F 8.820311 8.269864 -22.739586 0
M  V30 2 C 6.368438 3.351833 -19.897634 0 CFG=1
M  V30 3 C 6.742210 -3.804852 -20.910927 0
M  V30 4 C 5.279197 8.783480 -21.844122 0
M  V30 5 S 8.354565 0.928283 -20.241470 0
M  V30 6 F 5.897091 -1.166958 -21.034808 0
M  V30 7 C 7.610896 8.860852 -22.589299 0
M  V30 8 C 9.030374 -0.949173 -17.404871 0
M  V30 9 C 6.752215 6.697876 -21.529951 0 CFG=2
M  V30 10 C 5.880090 -3.949656 -18.587928 0
M  V30 11 S 5.834773 3.053614 -21.624884 0
M  V30 12 C 7.649432 -1.333772 -17.990795 0 CFG=1
M  V30 13 C 7.031872 1.023567 -19.200929 0
M  V30 14 N 6.214153 2.123929 -19.090075 0
M  V30 15 C 6.301283 0.443169 -16.850396 0
M  V30 16 C 7.419178 10.182470 -23.033053 0
M  V30 17 C 5.292040 -0.852889 -18.778166 0 CFG=1
M  V30 18 C 6.593161 4.341571 -22.657340 0
M  V30 19 C 5.098670 10.109078 -22.291664 0
M  V30 20 C 7.452280 5.635415 -19.236411 0
M  V30 21 C 6.542206 8.150427 -21.993391 0
M  V30 22 C 5.478972 -1.834117 -19.958820 0 CFG=2
M  V30 23 C 6.609205 -0.160726 -18.254321 0 CFG=2
M  V30 24 C 6.166618 10.804353 -22.886030 0
M  V30 25 O 4.235224 8.115601 -21.273406 0
M  V30 26 F 3.894611 10.714579 -22.150303 0
M  V30 27 C 5.981382 5.738193 -22.469570 0
M  V30 28 C 6.471835 -2.977047 -19.636494 0
M  V30 29 C 7.668021 4.171066 -19.675802 0
M  V30 30 C 6.438549 6.488204 -20.028513 0
M  V30 31 O 4.235031 0.043678 -19.091501 0
M  V30 32 C 7.802654 -2.372800 -19.132757 0
M  V30 33 H 5.564775 3.968429 -19.498861 0
M  V30 34 H 5.819306 -4.222210 -21.315164 0
M  V30 35 H 7.198497 -3.202123 -21.696882 0
M  V30 36 H 7.418218 -4.636506 -20.709661 0
M  V30 37 H 9.707090 -0.522327 -18.141461 0
M  V30 38 H 8.950674 -0.245560 -16.579174 0
M  V30 39 H 9.530442 -1.833168 -17.007220 0
M  V30 40 H 7.814306 6.489211 -21.657049 0
M  V30 41 H 4.948007 -4.392723 -18.940595 0
M  V30 42 H 6.568409 -4.769795 -18.380813 0
M  V30 43 H 5.663444 -3.476131 -17.631517 0
M  V30 44 H 7.211815 -1.913512 -17.178646 0
M  V30 45 H 5.437626 2.075285 -18.446556 0
M  V30 46 H 6.087913 -0.328662 -16.109563 0
M  V30 47 H 7.132682 1.035099 -16.467356 0
M  V30 48 H 5.434577 1.097950 -16.855688 0
M  V30 49 H 8.234848 10.719516 -23.491202 0
M  V30 50 H 4.885798 -1.428853 -17.946846 0
M  V30 51 H 6.387593 4.028600 -23.681512 0
M  V30 52 H 7.678999 4.343850 -22.582820 0
M  V30 53 H 7.129928 5.628364 -18.194526 0
M  V30 54 H 8.418224 6.142468 -19.233970 0
M  V30 55 H 4.518249 -2.263948 -20.241979 0
M  V30 56 H 6.024538 11.816323 -23.232010 0
M  V30 57 H 4.469596 7.241497 -21.005517 0
M  V30 58 H 4.924262 5.670841 -22.211453 0
M  V30 59 H 5.994874 6.189130 -23.463409 0
M  V30 60 H 8.255569 3.703117 -18.885255 0
M  V30 61 H 8.316593 4.128261 -20.547129 0
M  V30 62 H 6.437782 7.462822 -19.538232 0
M  V30 63 H 5.425795 6.111408 -19.891925 0
M  V30 64 H 3.410546 -0.424530 -19.091592 0
M  V30 65 H 8.346057 -1.938847 -19.969315 0
M  V30 66 H 8.435221 -3.188067 -18.781555 0
M  V30 END ATOM
M  V30 BEGIN BOND
M  V30 1 1 7 1
M  V30 2 1 11 2
M  V30 3 1 12 8
M  V30 4 2 13 5
M  V30 5 1 14 2
M  V30 6 1 14 13
M  V30 7 1 16 7
M  V30 8 1 18 11
M  V30 9 2 19 4
M  V30 10 1 21 4
M  V30 11 2 21 7
M  V30 12 1 21 9
M  V30 13 1 22 6
M  V30 14 1 22 17
M  V30 15 1 23 12
M  V30 16 1 23 13
M  V30 17 1 23 15 CFG=1
M  V30 18 1 23 17
M  V30 19 2 24 16
M  V30 20 1 24 19
M  V30 21 1 25 4
M  V30 22 1 26 19
M  V30 23 1 27 9
M  V30 24 1 27 18
M  V30 25 1 28 3
M  V30 26 1 28 10
M  V30 27 1 28 22
M  V30 28 1 29 2
M  V30 29 1 29 20
M  V30 30 1 30 9
M  V30 31 1 30 20
M  V30 32 1 31 17
M  V30 33 1 32 12
M  V30 34 1 32 28
M  V30 35 1 2 33 CFG=1
M  V30 36 1 34 3
M  V30 37 1 35 3
M  V30 38 1 36 3
M  V30 39 1 37 8
M  V30 40 1 38 8
M  V30 41 1 39 8
M  V30 42 1 9 40 CFG=1
M  V30 43 1 41 10
M  V30 44 1 42 10
M  V30 45 1 43 10
M  V30 46 1 12 44 CFG=1
M  V30 47 1 45 14
M  V30 48 1 46 15
M  V30 49 1 47 15
M  V30 50 1 48 15
M  V30 51 1 49 16
M  V30 52 1 17 50 CFG=1
M  V30 53 1 51 18
M  V30 54 1 52 18
M  V30 55 1 53 20
M  V30 56 1 54 20
M  V30 57 1 22 55 CFG=3
M  V30 58 1 56 24
M  V30 59 1 57 25
M  V30 60 1 58 27
M  V30 61 1 59 27
M  V30 62 1 60 29
M  V30 63 1 61 29
M  V30 64 1 62 30
M  V30 65 1 63 30
M  V30 66 1 64 31
M  V30 67 1 65 32
M  V30 68 1 66 32
M  V30 END BOND
M  V30 END CTAB
M  END
>  <i_epik_Tot_Q>  (1) 
0

>  <i_epik_Tot_abs_Q>  (1) 
0

>  <i_i_glide_confnum>  (1) 
363

>  <i_i_glide_lignum>  (1) 
186

>  <i_i_glide_posenum>  (1) 
147

>  <i_i_glide_rotatable_bonds>  (1) 
6

>  <i_lp_mmshare_version>  (1) 
72125

>  <i_m_source_file_index>  (1) 
93

>  <i_f3d_flags>  (1) 
0

>  <num_sample>  (1) 
100

>  <b_lp_Chiralities_Consistent>  (1) 
1

>  <r_epik_Charging_Adjusted_Penalty>  (1) 
0.13644680827592012

>  <r_epik_Ionization_Penalty>  (1) 
0.1364473086823538

>  <r_epik_Ionization_Penalty_Charging>  (1) 
0

>  <r_epik_Ionization_Penalty_Neutral>  (1) 
0.1364473086823538

>  <r_epik_State_Penalty>  (1) 
0.13644680827592012

>  <r_glide_ring_energy>  (1) 
2.2024039784510827

>  <r_i_docking_score>  (1) 
-2.7374642959544375

>  <r_i_glide_ecoul>  (1) 
-0.90607365738994927

>  <r_i_glide_eff_state_penalty>  (1) 
0.13644680827592012

>  <r_i_glide_einternal>  (1) 
4.8774037759779141

>  <r_i_glide_emodel>  (1) 
-36.097425961206895

>  <r_i_glide_emodel_strain>  (1) 
0.097467467584365863

>  <r_i_glide_energy>  (1) 
-33.354162417613942

>  <r_i_glide_erotb>  (1) 
0.33940478494589921

>  <r_i_glide_esite>  (1) 
-0.029774316135907343

>  <r_i_glide_evdw>  (1) 
-32.448088760223996

>  <r_i_glide_gscore>  (1) 
-2.8739111042303578

>  <r_i_glide_gscore_strain>  (1) 
0

>  <r_i_glide_hbond>  (1) 
-0.1423380554140008

>  <r_i_glide_ligand_efficiency>  (1) 
-0.085545759248576173

>  <r_i_glide_ligand_efficiency_ln>  (1) 
-0.61299287632262911

>  <r_i_glide_ligand_efficiency_sa>  (1) 
-0.27159085644521636

>  <r_i_glide_lipo>  (1) 
-0.93845150982556191

>  <r_i_glide_metal>  (1) 
-0

>  <r_i_glide_rewards>  (1) 
-0.34443652118109486

>  <r_lp_Energy>  (1) 
81.464282999999995

>  <r_lp_tautomer_probability>  (1) 
0.99999999999736477

>  <s_epik_Chemistry_Notes>  (1) 
This compound contains an acetal/aminal-like group ( X-CH(R)-Y where X, Y are N, S, or O) that may be acid/base labile, releasing an aldehyde.

>  <s_epik_cmdline>  (1) 
J2VwaWtfcHl0aG9uJywgJy1waHQnLCAnMS4wJywgJy1waCcsICc3LjQnLCAnLXRuJywgJzgnLCAnLW1hJywgJzUwMCcsICctaW1hZScsICc8aW5maWxlLm1hZT4nLCAnLW9tYWUnLCAnPG91dGZpbGUubWFlPic=

>  <s_epik_input>  (1) 
W09IXWMxYyhGKVtjSF1bY0hdYyhGKWMxW0NAQEhdKFtDSDJdW0NIMl1bQ0gyXTIpW0NIMl1bQ0gyXVNbQ0BIXTJbTkhdQyg9UylbQ0BdMyhbQ0gzXSlbQ0BIXShbQ0gzXSlbQ0gyXUMoW0NIM10pKFtDSDNdKVtDQEhdKEYpW0NAQEhdM1tPSF0=

>  <s_glide_docking_method>  (1) 
confgen

>  <s_i_glide_gridfile>  (1) 
gpcr_drd2_6luq_protein_autoprepared_prepared

>  <s_lp_Force_Field>  (1) 
S-OPLS

>  <s_lp_Variant>  (1) 
DiffSBDD_92_num_sample_100-1

>  <s_m_source_file>  (1) 
generated__ligand_DiffSBDD_2026-05-06_prepared.sdf

>  <GenAI_Model>  (1) 
DiffSBDD

>  <Protein>  (1) 
generic_title2

$$$$
DiffSBDD_89_num_sample_100
     RDKit          3D

  0  0  0  0  0  0  0  0  0  0999 V3000
M  V30 BEGIN CTAB
M  V30 COUNTS 75 80 0 0 1
M  V30 BEGIN ATOM
M  V30 1 C 8.872245 3.538112 -18.476757 0
M  V30 2 C 10.820782 2.574804 -19.904238 0
M  V30 3 C 9.300517 2.707991 -19.687999 0
M  V30 4 C 9.969325 5.526596 -20.848342 0
M  V30 5 C 13.081996 3.543458 -19.681140 0 CFG=1
M  V30 6 C 14.221926 4.283367 -16.162354 0 CFG=2
M  V30 7 C 5.115129 7.350438 -21.347039 0
M  V30 8 C 13.953672 4.452346 -18.832773 0 CFG=2
M  V30 9 C 4.687382 7.788448 -22.737441 0
M  V30 10 C 5.021296 7.640661 -18.925975 0
M  V30 11 C 15.435721 4.377321 -18.469797 0
M  V30 12 C 13.689557 2.822153 -20.882147 0
M  V30 13 C 6.513568 5.496224 -22.397305 0
M  V30 14 C 13.863500 5.770202 -15.988131 0
M  V30 15 C 5.894497 6.553325 -18.754274 0
M  V30 16 C 13.404569 3.132011 -18.260465 0 CFG=1
M  V30 17 C 13.304967 7.963737 -17.121864 0
M  V30 18 C 11.338650 4.814583 -20.909672 0
M  V30 19 C 5.993562 6.250393 -21.180883 0
M  V30 20 C 13.412867 5.869735 -18.528725 0
M  V30 21 C 8.104328 2.818262 -17.378205 0
M  V30 22 C 9.428012 5.897678 -19.449708 0
M  V30 23 C 8.371973 4.936692 -18.848921 0 CFG=1
M  V30 24 C 9.505803 3.285252 -17.120801 0
M  V30 25 C 13.976664 6.595570 -17.283931 0 CFG=2
M  V30 26 N 11.615221 3.836519 -19.818479 0 CFG=1 CHG=1
M  V30 27 C 15.564025 4.093203 -16.937208 0
M  V30 28 C 13.048004 3.496225 -16.832492 0
M  V30 29 O 7.247334 4.788493 -19.720137 0
M  V30 30 C 6.389944 5.855978 -19.880181 0
M  V30 31 C 4.634847 8.042072 -20.217397 0
M  V30 32 H 10.986406 2.098505 -20.870856 0
M  V30 33 H 11.199520 1.874033 -19.159292 0
M  V30 34 H 8.806520 3.059158 -20.590527 0
M  V30 35 H 8.905053 1.699071 -19.566534 0
M  V30 36 H 9.223623 4.973809 -21.414250 0
M  V30 37 H 10.075965 6.451642 -21.416780 0
M  V30 38 H 14.359589 3.884445 -15.157699 0
M  V30 39 H 4.114079 8.715138 -22.699582 0
M  V30 40 H 5.556120 7.962891 -23.372802 0
M  V30 41 H 4.059956 7.027833 -23.202981 0
M  V30 42 H 4.645624 8.169290 -18.062929 0
M  V30 43 H 15.944445 5.297162 -18.759172 0
M  V30 44 H 15.927256 3.585371 -19.034852 0
M  V30 45 H 14.749647 2.630722 -20.720731 0
M  V30 46 H 13.214606 1.856471 -21.050589 0
M  V30 47 H 13.601666 3.423757 -21.786435 0
M  V30 48 H 7.282060 6.082069 -22.901896 0
M  V30 49 H 6.943501 4.531501 -22.130382 0
M  V30 50 H 5.711222 5.295037 -23.106779 0
M  V30 51 H 12.858165 5.852016 -15.572221 0
M  V30 52 H 14.521731 6.208168 -15.236654 0
M  V30 53 H 6.179544 6.252703 -17.758904 0
M  V30 54 H 14.040362 2.246518 -18.267624 0
M  V30 55 H 12.234845 7.864337 -16.939290 0
M  V30 56 H 13.731116 8.522292 -16.291662 0
M  V30 57 H 13.434827 8.569332 -18.018980 0
M  V30 58 H 11.447453 4.330150 -21.880706 0
M  V30 59 H 12.106247 5.586658 -20.887158 0
M  V30 60 H 13.605181 6.492570 -19.402916 0
M  V30 61 H 12.336507 5.833047 -18.408409 0
M  V30 62 H 7.299066 3.356609 -16.881513 0
M  V30 63 H 7.948073 1.745035 -17.468639 0
M  V30 64 H 8.955957 6.877576 -19.534991 0
M  V30 65 H 10.233703 6.055101 -18.738184 0
M  V30 66 H 8.064528 5.388482 -17.907997 0
M  V30 67 H 10.265094 2.510772 -17.041120 0
M  V30 68 H 9.634786 4.133460 -16.450672 0
M  V30 69 H 15.032505 6.806857 -17.450119 0
M  V30 70 H 16.365749 4.684177 -16.492756 0
M  V30 71 H 15.834831 3.046927 -16.802935 0
M  V30 72 H 12.110750 4.048199 -16.792581 0
M  V30 73 H 12.886867 2.564480 -16.291791 0
M  V30 74 H 3.963809 8.879984 -20.341040 0
M  V30 75 H 11.347658 4.283790 -18.953308 0
M  V30 END ATOM
M  V30 BEGIN BOND
M  V30 1 1 3 1
M  V30 2 1 3 2
M  V30 3 1 8 5
M  V30 4 1 9 7
M  V30 5 1 8 11 CFG=3
M  V30 6 1 5 12 CFG=3
M  V30 7 1 14 6
M  V30 8 1 15 10
M  V30 9 1 16 5
M  V30 10 1 16 8
M  V30 11 1 18 4
M  V30 12 2 19 7
M  V30 13 1 19 13
M  V30 14 1 20 8
M  V30 15 1 21 1
M  V30 16 1 22 4
M  V30 17 1 23 1
M  V30 18 1 23 22
M  V30 19 1 24 1
M  V30 20 1 24 21
M  V30 21 1 25 14
M  V30 22 1 25 17
M  V30 23 1 25 20
M  V30 24 1 26 2
M  V30 25 1 26 5
M  V30 26 1 26 18
M  V30 27 1 27 6
M  V30 28 1 27 11
M  V30 29 1 28 6
M  V30 30 1 28 16
M  V30 31 1 29 23
M  V30 32 2 30 15
M  V30 33 1 30 19
M  V30 34 1 30 29
M  V30 35 1 31 7
M  V30 36 2 31 10
M  V30 37 1 32 2
M  V30 38 1 33 2
M  V30 39 1 34 3
M  V30 40 1 35 3
M  V30 41 1 36 4
M  V30 42 1 37 4
M  V30 43 1 6 38 CFG=1
M  V30 44 1 39 9
M  V30 45 1 40 9
M  V30 46 1 41 9
M  V30 47 1 42 10
M  V30 48 1 43 11
M  V30 49 1 44 11
M  V30 50 1 45 12
M  V30 51 1 46 12
M  V30 52 1 47 12
M  V30 53 1 48 13
M  V30 54 1 49 13
M  V30 55 1 50 13
M  V30 56 1 51 14
M  V30 57 1 52 14
M  V30 58 1 53 15
M  V30 59 1 16 54 CFG=3
M  V30 60 1 55 17
M  V30 61 1 56 17
M  V30 62 1 57 17
M  V30 63 1 58 18
M  V30 64 1 59 18
M  V30 65 1 60 20
M  V30 66 1 61 20
M  V30 67 1 62 21
M  V30 68 1 63 21
M  V30 69 1 64 22
M  V30 70 1 65 22
M  V30 71 1 23 66 CFG=1
M  V30 72 1 67 24
M  V30 73 1 68 24
M  V30 74 1 25 69 CFG=3
M  V30 75 1 70 27
M  V30 76 1 71 27
M  V30 77 1 72 28
M  V30 78 1 73 28
M  V30 79 1 74 31
M  V30 80 1 26 75 CFG=1
M  V30 END BOND
M  V30 END CTAB
M  END
>  <i_epik_Tot_Q>  (1) 
1

>  <i_epik_Tot_abs_Q>  (1) 
1

>  <i_i_glide_confnum>  (1) 
11

>  <i_i_glide_lignum>  (1) 
179

>  <i_i_glide_posenum>  (1) 
362

>  <i_i_glide_rotatable_bonds>  (1) 
3

>  <i_lp_mmshare_version>  (1) 
72125

>  <i_m_source_file_index>  (1) 
90

>  <i_f3d_flags>  (1) 
0

>  <num_sample>  (1) 
100

>  <b_lp_Chiralities_Consistent>  (1) 
1

>  <r_epik_Charging_Adjusted_Penalty>  (1) 
0.1480359762680355

>  <r_epik_Ionization_Penalty>  (1) 
0.074017988134017734

>  <r_epik_Ionization_Penalty_Charging>  (1) 
0.074017988134017734

>  <r_epik_Ionization_Penalty_Neutral>  (1) 
0

>  <r_epik_State_Penalty>  (1) 
0.074017988134017776

>  <r_glide_ring_energy>  (1) 
2.2305895053857632

>  <r_i_docking_score>  (1) 
-2.7116904168189921

>  <r_i_glide_ecoul>  (1) 
-1.5697064752203524

>  <r_i_glide_eff_state_penalty>  (1) 
0.074017988134017776

>  <r_i_glide_einternal>  (1) 
2.9250244845685103

>  <r_i_glide_emodel>  (1) 
-23.956806404950239

>  <r_i_glide_emodel_strain>  (1) 
0.014116931233303376

>  <r_i_glide_energy>  (1) 
-21.528028520854097

>  <r_i_glide_erotb>  (1) 
0.33268982325706958

>  <r_i_glide_esite>  (1) 
0

>  <r_i_glide_evdw>  (1) 
-19.958322045633743

>  <r_i_glide_gscore>  (1) 
-2.7857084049530099

>  <r_i_glide_gscore_strain>  (1) 
0

>  <r_i_glide_hbond>  (1) 
0

>  <r_i_glide_ligand_efficiency>  (1) 
-0.087473884413515876

>  <r_i_glide_ligand_efficiency_ln>  (1) 
-0.61156929232362567

>  <r_i_glide_ligand_efficiency_sa>  (1) 
-0.27478876808613983

>  <r_i_glide_lipo>  (1) 
-1.3578452228271563

>  <r_i_glide_metal>  (1) 
-0

>  <r_i_glide_rewards>  (1) 
-0.52718093181818326

>  <r_lp_Energy>  (1) 
80.633463999999989

>  <r_lp_tautomer_probability>  (1) 
1

>  <s_epik_cmdline>  (1) 
J2VwaWtfcHl0aG9uJywgJy1waHQnLCAnMS4wJywgJy1waCcsICc3LjQnLCAnLXRuJywgJzgnLCAnLW1hJywgJzUwMCcsICctaW1hZScsICc8aW5maWxlLm1hZT4nLCAnLW9tYWUnLCAnPG91dGZpbGUubWFlPic=

>  <s_epik_input>  (1) 
W0NIM11bQ0BIXShbQ0gyXTEpW0NIMl1bQ0BIXShbQ0gyXVtDSDJdMilbQ0gyXVtDQEhdKFtDQEBdMTIzKVtDQEBdMyhbQ0gzXSlOKFtDSDJdW0NIMl1DNDVbQ0gyXVtDSDJdNSlbQ0gyXVtDSDJdW0NIMl1bQ0BIXTRPYyhbY0hdW2NIXVtjSF02KWMoW0NIM10pYzZbQ0gzXQ==

>  <s_glide_docking_method>  (1) 
confgen

>  <s_i_glide_gridfile>  (1) 
gpcr_drd2_6luq_protein_autoprepared_prepared

>  <s_lp_Force_Field>  (1) 
S-OPLS

>  <s_lp_Variant>  (1) 
DiffSBDD_89_num_sample_100-1

>  <s_m_source_file>  (1) 
generated__ligand_DiffSBDD_2026-05-06_prepared.sdf

>  <GenAI_Model>  (1) 
DiffSBDD

>  <Protein>  (1) 
generic_title2

$$$$
DiffSBDD_52_num_sample_100
     RDKit          3D

  0  0  0  0  0  0  0  0  0  0999 V3000
M  V30 BEGIN CTAB
M  V30 COUNTS 53 55 0 0 1
M  V30 BEGIN ATOM
M  V30 1 C 10.958648 8.092307 -5.796673 0
M  V30 2 N 6.021287 6.320072 -17.778234 0
M  V30 3 C 9.693378 6.694102 -9.124173 0
M  V30 4 C 5.225611 7.185228 -18.640722 0
M  V30 5 N 11.034841 9.531184 -5.491664 0 CHG=1
M  V30 6 N 9.061120 6.888034 -11.854610 0
M  V30 7 O 5.745593 7.724272 -15.991989 0
M  V30 8 C 5.874714 6.967975 -20.009512 0 CFG=2
M  V30 9 C 7.510413 5.231488 -20.929261 0
M  V30 10 C 6.233251 6.679843 -16.441785 0
M  V30 11 N 9.434838 4.544416 -11.752460 0
M  V30 12 C 9.834836 6.934307 -7.746068 0
M  V30 13 C 10.521612 7.369169 -10.052412 0
M  V30 14 C 5.034821 7.456096 -21.200776 0
M  V30 15 C 6.300215 5.481215 -20.009141 0
M  V30 16 N 8.192971 3.914868 -13.639458 0
M  V30 17 C 6.667924 5.225788 -18.524535 0
M  V30 18 C 11.643688 8.507164 -8.206632 0
M  V30 19 C 8.136288 5.216401 -13.476831 0
M  V30 20 C 7.364922 6.221389 -14.353774 0
M  V30 21 C 8.888431 5.571539 -12.337905 0
M  V30 22 O 10.401575 7.132777 -11.405748 0
M  V30 23 C 10.808575 7.840178 -7.283452 0
M  V30 24 O 9.003036 3.469169 -12.563408 0
M  V30 25 C 11.496985 8.273382 -9.587593 0
M  V30 26 O 7.421622 4.580555 -16.107127 0 CHG=-1
M  V30 27 N 7.012985 5.787498 -15.649853 0
M  V30 28 O 7.111222 7.352672 -13.922874 0
M  V30 29 C 5.148310 4.549006 -20.447823 0
M  V30 30 H 10.101841 7.671790 -5.269778 0
M  V30 31 H 11.834839 7.574528 -5.415959 0
M  V30 32 H 8.946046 5.995742 -9.469559 0
M  V30 33 H 4.186791 6.854302 -18.625332 0
M  V30 34 H 5.253025 8.239798 -18.366582 0
M  V30 35 H 11.090506 9.669425 -4.493350 0
M  V30 36 H 11.851427 9.925442 -5.934355 0
M  V30 37 H 6.788521 7.565813 -20.008721 0
M  V30 38 H 8.356267 5.864885 -20.659732 0
M  V30 39 H 7.844989 4.195408 -20.866470 0
M  V30 40 H 7.267150 5.436891 -21.971833 0
M  V30 41 H 9.194297 6.420143 -7.043340 0
M  V30 42 H 4.080457 6.937473 -21.269760 0
M  V30 43 H 4.822463 8.521689 -21.112118 0
M  V30 44 H 5.564331 7.302721 -22.141143 0
M  V30 45 H 7.752516 5.284717 -18.414892 0
M  V30 46 H 6.313351 4.238068 -18.227321 0
M  V30 47 H 12.395300 9.197323 -7.857411 0
M  V30 48 H 12.136936 8.784778 -10.291662 0
M  V30 49 H 4.234840 4.746666 -19.891667 0
M  V30 50 H 4.915041 4.668345 -21.506030 0
M  V30 51 H 5.406366 3.500605 -20.294204 0
M  V30 52 H 10.209537 9.983296 -5.856520 0
M  V30 53 H 8.788338 7.639320 -12.474458 0
M  V30 END ATOM
M  V30 BEGIN BOND
M  V30 1 1 4 2
M  V30 2 1 5 1
M  V30 3 1 8 4
M  V30 4 1 10 2
M  V30 5 2 10 7
M  V30 6 2 12 3
M  V30 7 1 13 3
M  V30 8 1 14 8
M  V30 9 1 15 8
M  V30 10 1 15 9
M  V30 11 1 17 2
M  V30 12 1 17 15
M  V30 13 2 19 16
M  V30 14 1 20 19
M  V30 15 1 21 6
M  V30 16 2 21 11
M  V30 17 1 21 19
M  V30 18 1 22 6
M  V30 19 1 22 13
M  V30 20 1 23 1
M  V30 21 1 23 12
M  V30 22 2 23 18
M  V30 23 1 24 11
M  V30 24 1 24 16
M  V30 25 2 25 13
M  V30 26 1 25 18
M  V30 27 1 27 10
M  V30 28 1 27 20
M  V30 29 1 27 26
M  V30 30 2 28 20
M  V30 31 1 29 15
M  V30 32 1 30 1
M  V30 33 1 31 1
M  V30 34 1 32 3
M  V30 35 1 33 4
M  V30 36 1 34 4
M  V30 37 1 35 5
M  V30 38 1 36 5
M  V30 39 1 8 37 CFG=1
M  V30 40 1 38 9
M  V30 41 1 39 9
M  V30 42 1 40 9
M  V30 43 1 41 12
M  V30 44 1 42 14
M  V30 45 1 43 14
M  V30 46 1 44 14
M  V30 47 1 45 17
M  V30 48 1 46 17
M  V30 49 1 47 18
M  V30 50 1 48 25
M  V30 51 1 49 29
M  V30 52 1 50 29
M  V30 53 1 51 29
M  V30 54 1 52 5
M  V30 55 1 53 6
M  V30 END BOND
M  V30 END CTAB
M  END
>  <i_epik_Tot_Q>  (1) 
0

>  <i_epik_Tot_abs_Q>  (1) 
2

>  <i_i_glide_confnum>  (1) 
218

>  <i_i_glide_lignum>  (1) 
98

>  <i_i_glide_posenum>  (1) 
19

>  <i_i_glide_rotatable_bonds>  (1) 
8

>  <i_lp_mmshare_version>  (1) 
72125

>  <i_m_source_file_index>  (1) 
53

>  <i_f3d_flags>  (1) 
0

>  <num_sample>  (1) 
100

>  <b_lp_Chiralities_Consistent>  (1) 
1

>  <r_epik_Charging_Adjusted_Penalty>  (1) 
0.77952941266153319

>  <r_epik_Ionization_Penalty>  (1) 
0.7795476472939552

>  <r_epik_Ionization_Penalty_Charging>  (1) 
0.080812989066233118

>  <r_epik_Ionization_Penalty_Neutral>  (1) 
0.69873465822772207

>  <r_epik_State_Penalty>  (1) 
0.69871642359530006

>  <r_glide_ring_energy>  (1) 
0.88900172443488756

>  <r_i_docking_score>  (1) 
-2.7064556846307708

>  <r_i_glide_ecoul>  (1) 
2.7330611995373859

>  <r_i_glide_eff_state_penalty>  (1) 
0.69871642359530006

>  <r_i_glide_einternal>  (1) 
14.705744300830901

>  <r_i_glide_emodel>  (1) 
-39.782801967915994

>  <r_i_glide_emodel_strain>  (1) 
2.9121945214361915

>  <r_i_glide_energy>  (1) 
-40.734019783904095

>  <r_i_glide_erotb>  (1) 
0.84066204516479937

>  <r_i_glide_esite>  (1) 
-0.031236870992505567

>  <r_i_glide_evdw>  (1) 
-43.467080983441484

>  <r_i_glide_gscore>  (1) 
-3.4051721082260711

>  <r_i_glide_gscore_strain>  (1) 
0

>  <r_i_glide_hbond>  (1) 
0

>  <r_i_glide_ligand_efficiency>  (1) 
-0.09332605809071623

>  <r_i_glide_ligand_efficiency_ln>  (1) 
-0.61970972198582497

>  <r_i_glide_ligand_efficiency_sa>  (1) 
-0.28672721854704231

>  <r_i_glide_lipo>  (1) 
-1.7603020744525293

>  <r_i_glide_metal>  (1) 
-0

>  <r_i_glide_rewards>  (1) 
-0.69090033870436929

>  <r_lp_Energy>  (1) 
48.879171999999997

>  <s_epik_Chemistry_Notes>  (1) 
This compound has a N-S or N-O group and may undergo hydrolysis at high or low pH.

>  <s_epik_cmdline>  (1) 
J2VwaWtfcHl0aG9uJywgJy1waHQnLCAnMS4wJywgJy1waCcsICc3LjQnLCAnLXRuJywgJzgnLCAnLW1hJywgJzUwMCcsICctaW1hZScsICc8aW5maWxlLm1hZT4nLCAnLW9tYWUnLCAnPG91dGZpbGUubWFlPic=

>  <s_epik_input>  (1) 
W05IMl1bQ0gyXWMoW2NIXVtjSF0xKVtjSF1bY0hdYzFPL049YzIvW25IXW9uYzJDKD1PKU4oW09IXSlDKD1PKU4oW0NIMl0zKVtDSDJdW0NASF0oW0NIM10pQzMoW0NIM10pW0NIM10=

>  <s_glide_docking_method>  (1) 
confgen

>  <s_i_glide_gridfile>  (1) 
gpcr_drd2_6luq_protein_autoprepared_prepared

>  <s_lp_Force_Field>  (1) 
S-OPLS

>  <s_lp_Variant>  (1) 
DiffSBDD_52_num_sample_100-2

>  <s_m_source_file>  (1) 
generated__ligand_DiffSBDD_2026-05-06_prepared.sdf

>  <GenAI_Model>  (1) 
DiffSBDD

>  <Protein>  (1) 
generic_title2

$$$$
DiffSBDD_59_num_sample_100
     RDKit          3D

  0  0  0  0  0  0  0  0  0  0999 V3000
M  V30 BEGIN CTAB
M  V30 COUNTS 73 76 0 0 1
M  V30 BEGIN ATOM
M  V30 1 C 5.434995 4.826873 -12.102231 0
M  V30 2 N 9.282832 3.659937 -18.507761 0
M  V30 3 C 10.600229 3.988627 -17.924859 0
M  V30 4 C 8.501122 2.682255 -17.703760 0 CFG=1
M  V30 5 C 8.295453 6.590706 -12.247970 0
M  V30 6 C 6.903414 4.412612 -12.268684 0 CFG=2
M  V30 7 C 12.168197 7.961791 -3.300648 0
M  V30 8 C 10.311028 7.854787 -6.190585 0
M  V30 9 C 8.408470 5.067648 -10.333537 0
M  V30 10 C 11.358350 8.671310 -5.712503 0
M  V30 11 O 6.456931 1.798021 -13.472665 0
M  V30 12 O 12.911547 9.036658 -3.884530 0
M  V30 13 C 12.234793 9.227406 -6.652646 0
M  V30 14 C 9.337713 5.914841 -9.710613 0
M  V30 15 C 11.601362 4.545883 -18.949360 0
M  V30 16 C 7.886448 5.384770 -11.602802 0
M  V30 17 C 10.955880 8.151090 -8.396194 0
M  V30 18 C 9.241539 7.426409 -11.623976 0
M  V30 19 N 10.111354 7.585215 -7.502208 0
M  V30 20 C 8.522084 4.895011 -18.778672 0
M  V30 21 N 7.435037 2.294047 -15.447819 0
M  V30 22 C 7.725382 6.997508 -13.601048 0
M  V30 23 C 7.278367 2.139791 -18.476950 0
M  V30 24 O 9.333903 1.552317 -17.520428 0
M  V30 25 N 10.717600 7.958479 -9.772555 0
M  V30 26 C 7.034848 2.602385 -14.199149 0
M  V30 27 C 9.762902 7.099810 -10.355869 0
M  V30 28 C 11.391575 6.012325 -19.247960 0
M  V30 29 C 12.031460 8.957783 -8.012221 0
M  V30 30 C 7.328062 4.029393 -13.706161 0
M  V30 31 C 7.886735 6.604799 -20.540652 0
M  V30 32 C 11.527225 8.941158 -4.250795 0 CFG=2
M  V30 33 C 9.005729 5.696978 -20.006856 0 CFG=1
M  V30 34 C 8.120706 3.253417 -16.318143 0
M  V30 35 C 10.244752 6.523000 -19.714223 0
M  V30 36 H 5.172063 4.880827 -11.044958 0
M  V30 37 H 5.211831 5.799723 -12.532671 0
M  V30 38 H 4.769846 4.101595 -12.569435 0
M  V30 39 H 10.495448 4.679639 -17.087568 0
M  V30 40 H 11.076825 3.100499 -17.513106 0
M  V30 41 H 6.993437 3.497094 -11.688186 0
M  V30 42 H 11.996095 8.068868 -2.231712 0
M  V30 43 H 12.427837 6.969947 -3.664748 0
M  V30 44 H 9.613638 7.405331 -5.500520 0
M  V30 45 H 8.097119 4.169263 -9.837692 0
M  V30 46 H 13.054603 9.854751 -6.333975 0
M  V30 47 H 9.735303 5.640220 -8.749633 0
M  V30 48 H 12.610696 4.439018 -18.551748 0
M  V30 49 H 11.574719 3.970198 -19.875364 0
M  V30 50 H 9.560052 8.333020 -12.116385 0
M  V30 51 H 7.484090 4.639965 -18.975539 0
M  V30 52 H 8.503461 5.537967 -17.897095 0
M  V30 53 H 7.254596 1.367730 -15.809115 0
M  V30 54 H 7.835058 8.071845 -13.746415 0
M  V30 55 H 8.234860 6.500283 -14.423707 0
M  V30 56 H 6.659026 6.817264 -13.682701 0
M  V30 57 H 6.465222 2.861180 -18.541724 0
M  V30 58 H 7.551138 1.847305 -19.491669 0
M  V30 59 H 6.861172 1.257969 -17.989702 0
M  V30 60 H 9.394949 1.376533 -16.594516 0
M  V30 61 H 11.210566 8.573915 -10.398579 0
M  V30 62 H 12.231543 6.667789 -19.066814 0
M  V30 63 H 12.688989 9.369299 -8.758108 0
M  V30 64 H 8.409527 4.154235 -13.768560 0
M  V30 65 H 6.860837 4.711229 -14.412098 0
M  V30 66 H 8.216906 7.162599 -21.417983 0
M  V30 67 H 7.014182 6.021414 -20.836382 0
M  V30 68 H 7.566135 7.326781 -19.787967 0
M  V30 69 H 10.924920 9.770882 -3.886776 0
M  V30 70 H 9.260008 4.996120 -20.803058 0
M  V30 71 H 9.011507 3.625005 -15.815133 0
M  V30 72 H 7.456203 4.105564 -16.462277 0
M  V30 73 H 10.175672 7.585040 -19.902447 0
M  V30 END ATOM
M  V30 BEGIN BOND
M  V30 1 1 3 2
M  V30 2 1 4 2
M  V30 3 1 6 1
M  V30 4 2 10 8
M  V30 5 1 12 7
M  V30 6 1 13 10
M  V30 7 2 14 9
M  V30 8 1 15 3
M  V30 9 2 16 5
M  V30 10 1 16 6
M  V30 11 1 16 9
M  V30 12 1 18 5
M  V30 13 1 19 8
M  V30 14 2 19 17
M  V30 15 1 20 2
M  V30 16 1 22 5
M  V30 17 1 23 4
M  V30 18 1 4 24 CFG=1
M  V30 19 1 25 17
M  V30 20 2 26 11
M  V30 21 1 26 21
M  V30 22 1 27 14
M  V30 23 2 27 18
M  V30 24 1 27 25
M  V30 25 1 28 15
M  V30 26 2 29 13
M  V30 27 1 29 17
M  V30 28 1 30 6
M  V30 29 1 30 26
M  V30 30 1 32 7
M  V30 31 1 32 10
M  V30 32 1 32 12
M  V30 33 1 33 20
M  V30 34 1 33 31
M  V30 35 1 34 4
M  V30 36 1 34 21
M  V30 37 2 35 28
M  V30 38 1 35 33
M  V30 39 1 36 1
M  V30 40 1 37 1
M  V30 41 1 38 1
M  V30 42 1 39 3
M  V30 43 1 40 3
M  V30 44 1 6 41 CFG=1
M  V30 45 1 42 7
M  V30 46 1 43 7
M  V30 47 1 44 8
M  V30 48 1 45 9
M  V30 49 1 46 13
M  V30 50 1 47 14
M  V30 51 1 48 15
M  V30 52 1 49 15
M  V30 53 1 50 18
M  V30 54 1 51 20
M  V30 55 1 52 20
M  V30 56 1 53 21
M  V30 57 1 54 22
M  V30 58 1 55 22
M  V30 59 1 56 22
M  V30 60 1 57 23
M  V30 61 1 58 23
M  V30 62 1 59 23
M  V30 63 1 60 24
M  V30 64 1 61 25
M  V30 65 1 62 28
M  V30 66 1 63 29
M  V30 67 1 64 30
M  V30 68 1 65 30
M  V30 69 1 66 31
M  V30 70 1 67 31
M  V30 71 1 68 31
M  V30 72 1 32 69 CFG=1
M  V30 73 1 33 70 CFG=3
M  V30 74 1 71 34
M  V30 75 1 72 34
M  V30 76 1 73 35
M  V30 END BOND
M  V30 END CTAB
M  END
>  <i_epik_Tot_Q>  (1) 
0

>  <i_epik_Tot_abs_Q>  (1) 
0

>  <i_i_glide_confnum>  (1) 
1203

>  <i_i_glide_lignum>  (1) 
117

>  <i_i_glide_posenum>  (1) 
273

>  <i_i_glide_rotatable_bonds>  (1) 
11

>  <i_lp_mmshare_version>  (1) 
72125

>  <i_m_source_file_index>  (1) 
60

>  <i_f3d_flags>  (1) 
0

>  <num_sample>  (1) 
100

>  <b_lp_Chiralities_Consistent>  (1) 
1

>  <r_epik_Charging_Adjusted_Penalty>  (1) 
0.21966515356122782

>  <r_epik_Ionization_Penalty>  (1) 
0.22519441393607559

>  <r_epik_Ionization_Penalty_Charging>  (1) 
0

>  <r_epik_Ionization_Penalty_Neutral>  (1) 
0.22519441393607559

>  <r_epik_State_Penalty>  (1) 
0.21966515356122782

>  <r_glide_ring_energy>  (1) 
0

>  <r_i_docking_score>  (1) 
-2.7033902384768864

>  <r_i_glide_ecoul>  (1) 
2.1750141559279776

>  <r_i_glide_eff_state_penalty>  (1) 
0.21966515356122782

>  <r_i_glide_einternal>  (1) 
17.840784200032559

>  <r_i_glide_emodel>  (1) 
-36.352054072681803

>  <r_i_glide_emodel_strain>  (1) 
0.42437861856325299

>  <r_i_glide_energy>  (1) 
-41.009011782304292

>  <r_i_glide_erotb>  (1) 
0.88460327515387938

>  <r_i_glide_esite>  (1) 
-0.004280193139578589

>  <r_i_glide_evdw>  (1) 
-43.184025938232267

>  <r_i_glide_gscore>  (1) 
-2.9230553920381142

>  <r_i_glide_gscore_strain>  (1) 
0

>  <r_i_glide_hbond>  (1) 
0

>  <r_i_glide_ligand_efficiency>  (1) 
-0.077239721099339617

>  <r_i_glide_ligand_efficiency_ln>  (1) 
-0.59345415585938521

>  <r_i_glide_ligand_efficiency_sa>  (1) 
-0.25265624949641263

>  <r_i_glide_lipo>  (1) 
-2.3346936114601475

>  <r_i_glide_metal>  (1) 
-0

>  <r_i_glide_rewards>  (1) 
0.36426431093014977

>  <r_lp_Energy>  (1) 
28.775382

>  <r_lp_tautomer_probability>  (1) 
0.99999977220005165

>  <s_epik_cmdline>  (1) 
J2VwaWtfcHl0aG9uJywgJy1waHQnLCAnMS4wJywgJy1waCcsICc3LjQnLCAnLXRuJywgJzgnLCAnLW1hJywgJzUwMCcsICctaW1hZScsICc8aW5maWxlLm1hZT4nLCAnLW9tYWUnLCAnPG91dGZpbGUubWFlPic=

>  <s_epik_input>  (1) 
W0NIMl0xW0NAQEhdKFtDSDNdKVtDSF09W0NIXVtDSDJdW0NIMl1OMVtDQEBdKFtDSDNdKShbT0hdKVtDSDJdW05IXUMoPU8pW0NIMl1bQ0BIXShbQ0gzXSljKGMyW0NIM10pW2NIXVtjSF1jKFtjSF0yKVtOSF1jKFtjSF1bY0hdMyluW2NIXWMzW0NASF00W0NIMl1PNA==

>  <s_glide_docking_method>  (1) 
confgen

>  <s_i_glide_gridfile>  (1) 
gpcr_drd2_6luq_protein_autoprepared_prepared

>  <s_lp_Force_Field>  (1) 
S-OPLS

>  <s_lp_Variant>  (1) 
DiffSBDD_59_num_sample_100-1

>  <s_m_source_file>  (1) 
generated__ligand_DiffSBDD_2026-05-06_prepared.sdf

>  <GenAI_Model>  (1) 
DiffSBDD

>  <Protein>  (1) 
generic_title2

$$$$
DiffSBDD_12_num_sample_100
     RDKit          3D

  0  0  0  0  0  0  0  0  0  0999 V3000
M  V30 BEGIN CTAB
M  V30 COUNTS 67 71 0 0 1
M  V30 BEGIN ATOM
M  V30 1 C 9.787791 1.657991 -18.062460 0
M  V30 2 C 9.156405 2.946079 -18.216310 0
M  V30 3 F 11.608545 -0.229744 -21.257248 0
M  V30 4 O 10.234666 5.020790 -15.496844 0
M  V30 5 C 8.777138 8.178026 -6.649081 0
M  V30 6 C 8.320705 4.820663 -19.657549 0
M  V30 7 C 9.341937 3.715063 -19.512712 0 CFG=2
M  V30 8 F 9.839861 0.315171 -22.367485 0
M  V30 9 C 11.554614 7.190977 -7.996209 0
M  V30 10 C 6.073680 6.230726 -16.140716 0
M  V30 11 C 10.854312 0.796576 -21.651613 0
M  V30 12 C 7.718754 4.169396 -11.410475 0 CFG=1
M  V30 13 C 12.548068 8.003157 -8.833234 0
M  V30 14 C 11.680600 8.952963 -9.649818 0
M  V30 15 C 9.140995 6.985239 -7.545946 0
M  V30 16 C 10.325701 1.594346 -20.468292 0
M  V30 17 C 8.402486 3.466083 -17.221459 0
M  V30 18 C 7.596674 5.252500 -18.611700 0
M  V30 19 O 6.338187 4.169828 -11.093780 0
M  V30 20 O 7.549644 4.765567 -14.973420 0
M  V30 21 C 9.392813 5.278171 -12.762737 0 CFG=1
M  V30 22 C 10.171546 7.275890 -8.666149 0
M  V30 23 C 7.071532 5.251511 -16.167228 0
M  V30 24 F 11.593517 1.568714 -22.448459 0
M  V30 25 C 8.619029 6.440832 -10.643248 0
M  V30 26 C 10.242202 8.720764 -9.175941 0
M  V30 27 C 8.054486 3.230573 -12.569042 0
M  V30 28 P 9.107478 4.969390 -14.522524 0 CFG=2
M  V30 29 C 8.248856 5.550430 -11.837702 0 CFG=2
M  V30 30 C 9.977034 6.316520 -9.890694 0
M  V30 31 O 5.459467 6.830518 -15.234440 0 CHG=-1
M  V30 32 C 10.347932 1.025964 -19.112990 0
M  V30 33 C 9.830908 2.841194 -20.651510 0
M  V30 34 N 7.690236 4.672553 -17.328584 0
M  V30 35 C 9.320713 3.826133 -13.118877 0 CFG=1
M  V30 36 H 9.795068 1.182685 -17.092758 0
M  V30 37 H 8.067342 7.889184 -5.892134 0
M  V30 38 H 9.645166 8.591883 -6.138822 0
M  V30 39 H 8.281108 8.969195 -7.210249 0
M  V30 40 H 8.223121 5.289426 -20.626410 0
M  V30 41 H 10.239801 4.304453 -19.318579 0
M  V30 42 H 11.520767 7.673491 -7.020936 0
M  V30 43 H 11.834800 6.169173 -7.776974 0
M  V30 44 H 5.859667 6.436831 -17.187126 0
M  V30 45 H 8.286425 3.850552 -10.538629 0
M  V30 46 H 13.259612 8.543054 -8.207118 0
M  V30 47 H 13.126747 7.369491 -9.498448 0
M  V30 48 H 11.988731 9.993838 -9.550780 0
M  V30 49 H 11.770674 8.675151 -10.691638 0
M  V30 50 H 8.234878 6.569777 -7.953430 0
M  V30 51 H 9.513568 6.176622 -6.915206 0
M  V30 52 H 8.264064 2.953013 -16.282607 0
M  V30 53 H 6.912040 6.064643 -18.706732 0
M  V30 54 H 6.211955 4.681789 -10.306690 0
M  V30 55 H 10.359852 5.723397 -12.547548 0
M  V30 56 H 8.476347 7.464634 -10.980482 0
M  V30 57 H 7.835363 6.169298 -9.942131 0
M  V30 58 H 9.483283 8.989515 -9.905114 0
M  V30 59 H 10.102665 9.369290 -8.335491 0
M  V30 60 H 8.234980 2.193605 -12.291653 0
M  V30 61 H 7.254681 3.212284 -13.309266 0
M  V30 62 H 7.471065 6.045093 -12.423650 0
M  V30 63 H 10.121118 5.287331 -9.566301 0
M  V30 64 H 10.756923 6.569948 -10.603558 0
M  V30 65 H 10.795673 0.057503 -18.957345 0
M  V30 66 H 9.810541 3.272511 -21.641778 0
M  V30 67 H 10.234717 3.339889 -12.828185 0
M  V30 END ATOM
M  V30 BEGIN BOND
M  V30 1 1 2 1
M  V30 2 1 7 2
M  V30 3 1 7 6
M  V30 4 1 11 3
M  V30 5 1 11 8
M  V30 6 1 13 9
M  V30 7 1 14 13
M  V30 8 1 15 5
M  V30 9 1 16 11
M  V30 10 2 17 2
M  V30 11 2 18 6
M  V30 12 1 19 12
M  V30 13 1 22 9
M  V30 14 1 22 15
M  V30 15 2 23 10
M  V30 16 1 23 20
M  V30 17 1 24 11
M  V30 18 1 26 14
M  V30 19 1 26 22
M  V30 20 1 27 12
M  V30 21 2 28 4
M  V30 22 1 28 20 CFG=3
M  V30 23 1 28 21
M  V30 24 1 29 12
M  V30 25 1 29 21
M  V30 26 1 29 25
M  V30 27 1 30 22
M  V30 28 1 30 25
M  V30 29 1 31 10
M  V30 30 2 32 1
M  V30 31 1 32 16
M  V30 32 1 33 7
M  V30 33 2 33 16
M  V30 34 1 34 17
M  V30 35 1 34 18
M  V30 36 1 34 23
M  V30 37 1 35 21
M  V30 38 1 35 27
M  V30 39 1 35 28
M  V30 40 1 36 1
M  V30 41 1 37 5
M  V30 42 1 38 5
M  V30 43 1 39 5
M  V30 44 1 40 6
M  V30 45 1 7 41 CFG=1
M  V30 46 1 42 9
M  V30 47 1 43 9
M  V30 48 1 44 10
M  V30 49 1 12 45 CFG=1
M  V30 50 1 46 13
M  V30 51 1 47 13
M  V30 52 1 48 14
M  V30 53 1 49 14
M  V30 54 1 50 15
M  V30 55 1 51 15
M  V30 56 1 52 17
M  V30 57 1 53 18
M  V30 58 1 54 19
M  V30 59 1 21 55 CFG=3
M  V30 60 1 56 25
M  V30 61 1 57 25
M  V30 62 1 58 26
M  V30 63 1 59 26
M  V30 64 1 60 27
M  V30 65 1 61 27
M  V30 66 1 29 62 CFG=3
M  V30 67 1 63 30
M  V30 68 1 64 30
M  V30 69 1 65 32
M  V30 70 1 66 33
M  V30 71 1 35 67 CFG=3
M  V30 END BOND
M  V30 END CTAB
M  END
>  <i_epik_Tot_Q>  (1) 
-1

>  <i_epik_Tot_abs_Q>  (1) 
1

>  <i_i_glide_confnum>  (1) 
431

>  <i_i_glide_lignum>  (1) 
21

>  <i_i_glide_posenum>  (1) 
272

>  <i_i_glide_rotatable_bonds>  (1) 
9

>  <i_lp_mmshare_version>  (1) 
72125

>  <i_m_source_file_index>  (1) 
13

>  <i_f3d_flags>  (1) 
0

>  <num_sample>  (1) 
100

>  <b_lp_Chiralities_Consistent>  (1) 
1

>  <r_epik_Charging_Adjusted_Penalty>  (1) 
6.0913929175536644e-07

>  <r_epik_Ionization_Penalty>  (1) 
7.5242037030438095e-07

>  <r_epik_Ionization_Penalty_Charging>  (1) 
6.0913929175536644e-07

>  <r_epik_Ionization_Penalty_Neutral>  (1) 
1.4328107854901448e-07

>  <r_epik_State_Penalty>  (1) 
-0

>  <r_glide_ring_energy>  (1) 
0.00028320506983089342

>  <r_i_docking_score>  (1) 
-2.7013731755139401

>  <r_i_glide_ecoul>  (1) 
0.022164418167595235

>  <r_i_glide_eff_state_penalty>  (1) 
-0

>  <r_i_glide_einternal>  (1) 
10.93520254725227

>  <r_i_glide_emodel>  (1) 
-13.32677877966475

>  <r_i_glide_emodel_strain>  (1) 
3.2263257961185587

>  <r_i_glide_energy>  (1) 
-17.714376621342449

>  <r_i_glide_erotb>  (1) 
0.47163652173243925

>  <r_i_glide_esite>  (1) 
0

>  <r_i_glide_evdw>  (1) 
-17.736541039510044

>  <r_i_glide_gscore>  (1) 
-2.7013731755139401

>  <r_i_glide_gscore_strain>  (1) 
0

>  <r_i_glide_hbond>  (1) 
0

>  <r_i_glide_ligand_efficiency>  (1) 
-0.077182090728969713

>  <r_i_glide_ligand_efficiency_ln>  (1) 
-0.59301136577271796

>  <r_i_glide_ligand_efficiency_sa>  (1) 
-0.25246773673345196

>  <r_i_glide_lipo>  (1) 
-1.3874403041170589

>  <r_i_glide_metal>  (1) 
-0

>  <r_i_glide_rewards>  (1) 
-0.90206700387895733

>  <r_lp_Energy>  (1) 
58.565332999999995

>  <r_lp_tautomer_probability>  (1) 
1

>  <s_epik_Chemistry_Notes>  (1) 
This compound has an imine and may undergo hydrolysis.

>  <s_epik_cmdline>  (1) 
J2VwaWtfcHl0aG9uJywgJy1waHQnLCAnMS4wJywgJy1waCcsICc3LjQnLCAnLXRuJywgJzgnLCAnLW1hJywgJzUwMCcsICctaW1hZScsICc8aW5maWxlLm1hZT4nLCAnLW9tYWUnLCAnPG91dGZpbGUubWFlPic=

>  <s_epik_input>  (1) 
W0NIXTE9W0NIXUMoQyhGKShGKUYpPVtDSF1bQ0BASF0oQzE9MilbQ0hdPVtDSF1OKFtDSF0yKVtDQEBIXShbQ0hdPU8pT1tQQF0zKD1PKVtDQEBIXShbQ0BASF0zNClbQ0gyXVtDQEhdKFtPSF0pW0NASF00W0NIMl1bQ0gyXUM1KFtDSDJdW0NIM10pW0NIMl1bQ0gyXVtDSDJdW0NIMl01

>  <s_glide_docking_method>  (1) 
confgen

>  <s_i_glide_gridfile>  (1) 
gpcr_drd2_6luq_protein_autoprepared_prepared

>  <s_lp_Force_Field>  (1) 
S-OPLS

>  <s_lp_Variant>  (1) 
DiffSBDD_12_num_sample_100-2

>  <s_m_source_file>  (1) 
generated__ligand_DiffSBDD_2026-05-06_prepared.sdf

>  <GenAI_Model>  (1) 
DiffSBDD

>  <Protein>  (1) 
generic_title2

$$$$
DiffSBDD_29_num_sample_100
     RDKit          3D

  0  0  0  0  0  0  0  0  0  0999 V3000
M  V30 BEGIN CTAB
M  V30 COUNTS 73 77 0 0 1
M  V30 BEGIN ATOM
M  V30 1 F 6.477614 -6.959612 -15.522372 0
M  V30 2 O 5.521312 3.292633 -20.394546 0
M  V30 3 N 8.913785 3.785266 -17.469453 0
M  V30 4 C 7.389023 6.339068 -21.909084 0
M  V30 5 N 6.536015 -6.797220 -18.451693 0
M  V30 6 C 7.910727 -6.589106 -20.505867 0
M  V30 7 C 7.370824 2.078115 -19.414052 0 CFG=1
M  V30 8 C 8.091792 -4.334195 -21.454998 0
M  V30 9 C 7.102027 -6.054643 -19.492029 0
M  V30 10 C 8.192779 3.067115 -16.518394 0
M  V30 11 C 6.422298 5.955562 -19.517746 0
M  V30 12 N 6.580071 0.205850 -18.028351 0
M  V30 13 C 9.798525 7.012182 -22.194129 0 CFG=2
M  V30 14 O 10.693031 7.773335 -22.977531 0
M  V30 15 O 4.604518 -0.699551 -16.640248 0
M  V30 16 C 9.315390 5.376037 -19.336136 0
M  V30 17 C 8.851203 6.761563 -19.818568 0 CFG=2
M  V30 18 C 5.852417 -5.825153 -17.495887 0 CFG=2
M  V30 19 C 5.492211 -3.311486 -17.883966 0
M  V30 20 C 7.276584 1.031374 -20.556622 0
M  V30 21 C 7.199083 2.164884 -16.729167 0
M  V30 22 C 6.861345 3.434158 -19.948372 0 CFG=2
M  V30 23 N 5.635823 -2.113394 -18.585018 0
M  V30 24 C 7.279342 -3.837789 -20.406315 0
M  V30 25 C 6.015621 -4.497314 -18.278688 0
M  V30 26 C 7.420179 6.739150 -20.415753 0 CFG=1
M  V30 27 C 8.411879 -5.718845 -21.503479 0
M  V30 28 C 8.373624 7.169557 -22.742850 0
M  V30 29 F 7.834838 -5.442866 -16.291667 0
M  V30 30 C 8.310323 4.822724 -18.309084 0 CFG=1
M  V30 31 C 9.872972 7.475515 -20.731755 0
M  V30 32 C 6.663249 1.669701 -18.082804 0 CFG=1
M  V30 33 C 6.921144 4.597582 -18.936229 0 CFG=1
M  V30 34 C 6.556892 -5.779057 -16.136159 0
M  V30 35 C 6.805370 -4.748408 -19.435937 0
M  V30 36 O 4.234844 -0.000840 -19.091670 0
M  V30 37 S 5.062143 -0.594509 -18.032871 0
M  V30 38 H 5.461798 2.506417 -20.917254 0
M  V30 39 H 7.641809 5.294726 -22.054067 0
M  V30 40 H 6.380352 6.463884 -22.304009 0
M  V30 41 H 7.025475 -7.596549 -18.077499 0
M  V30 42 H 8.141709 -7.643838 -20.528645 0
M  V30 43 H 8.441288 2.143173 -19.233390 0
M  V30 44 H 8.471713 -3.662878 -22.211230 0
M  V30 45 H 8.519485 3.280305 -15.510860 0
M  V30 46 H 6.192221 6.597595 -18.666021 0
M  V30 47 H 5.468513 5.836670 -20.032300 0
M  V30 48 H 7.248638 -0.208037 -17.379502 0
M  V30 49 H 10.103326 5.967000 -22.261230 0
M  V30 50 H 10.393634 8.670371 -23.006448 0
M  V30 51 H 9.446885 4.688299 -20.171210 0
M  V30 52 H 10.295622 5.479423 -18.868796 0
M  V30 53 H 8.795941 7.369298 -18.915542 0
M  V30 54 H 4.795539 -6.072238 -17.388302 0
M  V30 55 H 4.913851 -3.211928 -16.977010 0
M  V30 56 H 6.246177 0.756005 -20.782605 0
M  V30 57 H 7.813985 0.116184 -20.306885 0
M  V30 58 H 7.725278 1.409028 -21.475627 0
M  V30 59 H 7.470296 3.665728 -20.814137 0
M  V30 60 H 5.947592 -2.153489 -19.551750 0
M  V30 61 H 7.047905 -2.791627 -20.358148 0
M  V30 62 H 7.073215 7.773944 -20.403772 0
M  V30 63 H 9.033872 -6.104721 -22.297768 0
M  V30 64 H 8.075764 8.219221 -22.730085 0
M  V30 65 H 8.335342 6.847484 -23.784393 0
M  V30 66 H 8.162331 5.623238 -17.582371 0
M  V30 67 H 10.883496 7.340056 -20.344296 0
M  V30 68 H 9.685847 8.549319 -20.693164 0
M  V30 69 H 5.635426 2.029908 -18.125471 0
M  V30 70 H 6.234821 4.362448 -18.125412 0
M  V30 71 H 6.111314 -5.032846 -15.481121 0
M  V30 72 H 6.749017 1.698625 -15.863880 0
M  V30 73 H 9.828333 4.077742 -17.152854 0
M  V30 END ATOM
M  V30 BEGIN BOND
M  V30 1 1 9 5
M  V30 2 2 9 6
M  V30 3 1 10 3
M  V30 4 1 14 13
M  V30 5 1 17 16
M  V30 6 1 18 5
M  V30 7 1 20 7
M  V30 8 2 21 10
M  V30 9 1 22 2
M  V30 10 1 22 7
M  V30 11 1 23 19
M  V30 12 1 24 8
M  V30 13 1 25 18
M  V30 14 2 25 19
M  V30 15 1 26 4
M  V30 16 1 26 11
M  V30 17 1 26 17
M  V30 18 1 27 6
M  V30 19 2 27 8
M  V30 20 1 28 4
M  V30 21 1 28 13
M  V30 22 1 30 3
M  V30 23 1 30 16
M  V30 24 1 31 13
M  V30 25 1 31 17
M  V30 26 1 32 7
M  V30 27 1 32 12
M  V30 28 1 32 21
M  V30 29 1 33 11
M  V30 30 1 33 22
M  V30 31 1 33 30
M  V30 32 1 34 1
M  V30 33 1 34 18
M  V30 34 1 34 29
M  V30 35 1 35 9
M  V30 36 2 35 24
M  V30 37 1 35 25
M  V30 38 1 37 12
M  V30 39 2 37 15
M  V30 40 1 37 23
M  V30 41 2 37 36
M  V30 42 1 38 2
M  V30 43 1 39 4
M  V30 44 1 40 4
M  V30 45 1 41 5
M  V30 46 1 42 6
M  V30 47 1 7 43 CFG=1
M  V30 48 1 44 8
M  V30 49 1 45 10
M  V30 50 1 46 11
M  V30 51 1 47 11
M  V30 52 1 48 12
M  V30 53 1 13 49 CFG=1
M  V30 54 1 50 14
M  V30 55 1 51 16
M  V30 56 1 52 16
M  V30 57 1 17 53 CFG=1
M  V30 58 1 18 54 CFG=1
M  V30 59 1 55 19
M  V30 60 1 56 20
M  V30 61 1 57 20
M  V30 62 1 58 20
M  V30 63 1 22 59 CFG=3
M  V30 64 1 60 23
M  V30 65 1 61 24
M  V30 66 1 26 62 CFG=3
M  V30 67 1 63 27
M  V30 68 1 64 28
M  V30 69 1 65 28
M  V30 70 1 30 66 CFG=1
M  V30 71 1 67 31
M  V30 72 1 68 31
M  V30 73 1 32 69 CFG=3
M  V30 74 1 33 70 CFG=1
M  V30 75 1 71 34
M  V30 76 1 72 21
M  V30 77 1 73 3
M  V30 END BOND
M  V30 END CTAB
M  END
>  <i_epik_Tot_Q>  (1) 
0

>  <i_epik_Tot_abs_Q>  (1) 
0

>  <i_i_glide_confnum>  (1) 
35

>  <i_i_glide_lignum>  (1) 
54

>  <i_i_glide_posenum>  (1) 
381

>  <i_i_glide_rotatable_bonds>  (1) 
7

>  <i_lp_mmshare_version>  (1) 
72125

>  <i_m_source_file_index>  (1) 
30

>  <i_f3d_flags>  (1) 
0

>  <num_sample>  (1) 
100

>  <b_lp_Chiralities_Consistent>  (1) 
1

>  <r_epik_Charging_Adjusted_Penalty>  (1) 
1.5459132844328078e-07

>  <r_epik_Ionization_Penalty>  (1) 
1.5952634643945804

>  <r_epik_Ionization_Penalty_Charging>  (1) 
1.5459132844328078e-07

>  <r_epik_Ionization_Penalty_Neutral>  (1) 
1.595263309803252

>  <r_epik_State_Penalty>  (1) 
-0

>  <r_glide_ring_energy>  (1) 
0

>  <r_i_docking_score>  (1) 
-2.6959537784324792

>  <r_i_glide_ecoul>  (1) 
-1.8339222896405778

>  <r_i_glide_eff_state_penalty>  (1) 
-0

>  <r_i_glide_einternal>  (1) 
5.7039066219165502

>  <r_i_glide_emodel>  (1) 
-32.968002285014002

>  <r_i_glide_emodel_strain>  (1) 
2.3802128853206455

>  <r_i_glide_energy>  (1) 
-32.945083319354907

>  <r_i_glide_erotb>  (1) 
0.28486469644810641

>  <r_i_glide_esite>  (1) 
-0.071741944378542519

>  <r_i_glide_evdw>  (1) 
-31.111161029714328

>  <r_i_glide_gscore>  (1) 
-2.6959537784324792

>  <r_i_glide_gscore_strain>  (1) 
0

>  <r_i_glide_hbond>  (1) 
0

>  <r_i_glide_ligand_efficiency>  (1) 
-0.072863615633310244

>  <r_i_glide_ligand_efficiency_ln>  (1) 
-0.58468917241825935

>  <r_i_glide_ligand_efficiency_sa>  (1) 
-0.24279773220324813

>  <r_i_glide_lipo>  (1) 
-0.84602208454461902

>  <r_i_glide_metal>  (1) 
-0

>  <r_i_glide_rewards>  (1) 
-0.2324080510256209

>  <r_lp_Energy>  (1) 
50.533285999999997

>  <r_lp_tautomer_probability>  (1) 
1

>  <s_epik_Chemistry_Notes>  (1) 
This compound has an imine and may undergo hydrolysis.

>  <s_epik_cmdline>  (1) 
J2VwaWtfcHl0aG9uJywgJy1waHQnLCAnMS4wJywgJy1waCcsICc3LjQnLCAnLXRuJywgJzgnLCAnLW1hJywgJzUwMCcsICctaW1hZScsICc8aW5maWxlLm1hZT4nLCAnLW9tYWUnLCAnPG91dGZpbGUubWFlPic=

>  <s_epik_input>  (1) 
W2NIXTFbY0hdW2NIXVtjSF1jKGMxMilDKC9bQ0BASF0oW05IXTIpW0NIXShGKUYpPVtDSF1cW05IXVMoPU8pKD1PKVtOSF1bQ0BIXShbQ0BASF0oW0NIM10pW0NASF0zW09IXSlbQ0gyXVxbQ0hdPU5cW0NAQEhdKFtDSDJdNClbQ0BIXTNbQ0gyXVtDQEBIXShbQ0BASF00NSlbQ0gyXVtDSDJdW0NASF0oW09IXSlbQ0gyXTU=

>  <s_glide_docking_method>  (1) 
confgen

>  <s_i_glide_gridfile>  (1) 
gpcr_drd2_6luq_protein_autoprepared_prepared

>  <s_lp_Force_Field>  (1) 
S-OPLS

>  <s_lp_Variant>  (1) 
DiffSBDD_29_num_sample_100-4

>  <s_m_source_file>  (1) 
generated__ligand_DiffSBDD_2026-05-06_prepared.sdf

>  <GenAI_Model>  (1) 
DiffSBDD

>  <Protein>  (1) 
generic_title2

$$$$
DiffSBDD_93_num_sample_100
     RDKit          3D

  0  0  0  0  0  0  0  0  0  0999 V3000
M  V30 BEGIN CTAB
M  V30 COUNTS 36 36 0 0 1
M  V30 BEGIN ATOM
M  V30 1 C 19.586912 9.125456 -19.304060 0
M  V30 2 C 15.774528 7.682301 -18.633782 0
M  V30 3 C 18.815672 9.878244 -18.211067 0
M  V30 4 C 15.949148 4.647530 -18.301769 0
M  V30 5 C 16.347362 4.012792 -19.641756 0
M  V30 6 C 19.497579 7.574301 -19.290794 0 CFG=2
M  V30 7 C 17.131977 6.987684 -18.390270 0 CFG=2
M  V30 8 C 20.636970 7.041893 -20.189828 0
M  V30 9 C 18.114594 5.680818 -20.427591 0
M  V30 10 C 18.068953 7.021349 -19.643716 0 CFG=2
M  V30 11 C 16.988425 5.611292 -17.692040 0
M  V30 12 C 16.763789 5.013246 -20.728488 0
M  V30 13 H 19.285020 9.502676 -20.281940 0
M  V30 14 H 20.633066 9.414287 -19.193933 0
M  V30 15 H 15.178992 7.180056 -19.393661 0
M  V30 16 H 15.182431 7.715621 -17.718983 0
M  V30 17 H 15.902658 8.709906 -18.970391 0
M  V30 18 H 19.086608 10.934595 -18.212083 0
M  V30 19 H 19.034840 9.487468 -17.218117 0
M  V30 20 H 17.740975 9.828920 -18.368029 0
M  V30 21 H 14.983435 5.141844 -18.401734 0
M  V30 22 H 15.771566 3.840546 -17.590494 0
M  V30 23 H 15.502866 3.427836 -20.007826 0
M  V30 24 H 17.153952 3.294946 -19.491170 0
M  V30 25 H 19.750048 7.225504 -18.291796 0
M  V30 26 H 17.605466 7.604473 -17.629181 0
M  V30 27 H 20.474819 7.297306 -21.237392 0
M  V30 28 H 21.599097 7.464020 -19.897774 0
M  V30 29 H 20.755582 5.961273 -20.114013 0
M  V30 30 H 18.590690 5.867878 -21.390343 0
M  V30 31 H 18.756296 4.962599 -19.916706 0
M  V30 32 H 17.639669 7.737207 -20.346067 0
M  V30 33 H 16.683076 5.798029 -16.661228 0
M  V30 34 H 17.961232 5.124961 -17.615710 0
M  V30 35 H 15.986059 5.750824 -20.921887 0
M  V30 36 H 16.867282 4.452913 -21.658582 0
M  V30 END ATOM
M  V30 BEGIN BOND
M  V30 1 1 3 1
M  V30 2 1 5 4
M  V30 3 1 6 1
M  V30 4 1 7 2
M  V30 5 1 8 6
M  V30 6 1 10 6
M  V30 7 1 10 7
M  V30 8 1 10 9
M  V30 9 1 11 4
M  V30 10 1 11 7
M  V30 11 1 12 5
M  V30 12 1 12 9
M  V30 13 1 13 1
M  V30 14 1 14 1
M  V30 15 1 15 2
M  V30 16 1 16 2
M  V30 17 1 17 2
M  V30 18 1 18 3
M  V30 19 1 19 3
M  V30 20 1 20 3
M  V30 21 1 21 4
M  V30 22 1 22 4
M  V30 23 1 23 5
M  V30 24 1 24 5
M  V30 25 1 6 25 CFG=1
M  V30 26 1 7 26 CFG=1
M  V30 27 1 27 8
M  V30 28 1 28 8
M  V30 29 1 29 8
M  V30 30 1 30 9
M  V30 31 1 31 9
M  V30 32 1 10 32 CFG=3
M  V30 33 1 33 11
M  V30 34 1 34 11
M  V30 35 1 35 12
M  V30 36 1 36 12
M  V30 END BOND
M  V30 END CTAB
M  END
>  <i_epik_Tot_Q>  (1) 
0

>  <i_epik_Tot_abs_Q>  (1) 
0

>  <i_i_glide_confnum>  (1) 
26

>  <i_i_glide_lignum>  (1) 
188

>  <i_i_glide_posenum>  (1) 
62

>  <i_i_glide_rotatable_bonds>  (1) 
2

>  <i_lp_mmshare_version>  (1) 
72125

>  <i_m_source_file_index>  (1) 
94

>  <i_f3d_flags>  (1) 
0

>  <num_sample>  (1) 
100

>  <b_lp_Chiralities_Consistent>  (1) 
1

>  <r_epik_Charging_Adjusted_Penalty>  (1) 
0

>  <r_epik_Ionization_Penalty>  (1) 
0

>  <r_epik_Ionization_Penalty_Charging>  (1) 
0

>  <r_epik_Ionization_Penalty_Neutral>  (1) 
0

>  <r_epik_State_Penalty>  (1) 
-0

>  <r_glide_ring_energy>  (1) 
1.9313137795550155

>  <r_i_docking_score>  (1) 
-2.6931854486232796

>  <r_i_glide_ecoul>  (1) 
-0.061456903279231971

>  <r_i_glide_eff_state_penalty>  (1) 
-0

>  <r_i_glide_einternal>  (1) 
0.88520541157437016

>  <r_i_glide_emodel>  (1) 
-9.991387534353084

>  <r_i_glide_emodel_strain>  (1) 
3.4325170261695348e-07

>  <r_i_glide_energy>  (1) 
-8.4191963201274991

>  <r_i_glide_erotb>  (1) 
0.54244534581565329

>  <r_i_glide_esite>  (1) 
0

>  <r_i_glide_evdw>  (1) 
-8.3577394168482666

>  <r_i_glide_gscore>  (1) 
-2.6931854486232796

>  <r_i_glide_gscore_strain>  (1) 
0

>  <r_i_glide_hbond>  (1) 
0

>  <r_i_glide_ligand_efficiency>  (1) 
-0.22443212071860663

>  <r_i_glide_ligand_efficiency_ln>  (1) 
-0.77281422984088133

>  <r_i_glide_ligand_efficiency_sa>  (1) 
-0.51382129014607547

>  <r_i_glide_lipo>  (1) 
-0.55852528810463475

>  <r_i_glide_metal>  (1) 
-0

>  <r_i_glide_rewards>  (1) 
-2.25

>  <r_lp_Energy>  (1) 
24.382804

>  <r_lp_tautomer_probability>  (1) 
1

>  <s_epik_cmdline>  (1) 
J2VwaWtfcHl0aG9uJywgJy1waHQnLCAnMS4wJywgJy1waCcsICc3LjQnLCAnLXRuJywgJzgnLCAnLW1hJywgJzUwMCcsICctaW1hZScsICc8aW5maWxlLm1hZT4nLCAnLW9tYWUnLCAnPG91dGZpbGUubWFlPic=

>  <s_epik_input>  (1) 
W0NIM11bQ0gyXVtDQEhdKFtDSDNdKVtDQEhdKFtDQEhdMVtDSDNdKVtDSDJdW0NIMl1bQ0gyXVtDSDJdW0NIMl0x

>  <s_glide_docking_method>  (1) 
confgen

>  <s_i_glide_gridfile>  (1) 
gpcr_drd2_6luq_protein_autoprepared_prepared

>  <s_lp_Force_Field>  (1) 
S-OPLS

>  <s_lp_Variant>  (1) 
DiffSBDD_93_num_sample_100-1

>  <s_m_source_file>  (1) 
generated__ligand_DiffSBDD_2026-05-06_prepared.sdf

>  <GenAI_Model>  (1) 
DiffSBDD

>  <Protein>  (1) 
generic_title2

$$$$
DiffSBDD_67_num_sample_100
     RDKit          3D

  0  0  0  0  0  0  0  0  0  0999 V3000
M  V30 BEGIN CTAB
M  V30 COUNTS 79 83 0 0 1
M  V30 BEGIN ATOM
M  V30 1 C 7.803055 5.175186 -17.851419 0 CFG=2
M  V30 2 C 5.286901 5.853769 -18.470412 0 CFG=1
M  V30 3 C 4.289231 6.933811 -18.006333 0
M  V30 4 C 5.071438 5.471672 -19.961109 0 CFG=1
M  V30 5 C 6.307449 4.965724 -14.568305 0
M  V30 6 C 8.592730 4.137704 -15.610940 0
M  V30 7 C 10.710557 7.817245 -9.413486 0
M  V30 8 C 9.196056 6.169068 -8.434920 0
M  V30 9 C 6.895595 6.762576 -21.277442 0 CFG=2
M  V30 10 C 10.091730 7.026116 -12.069894 0
M  V30 11 C 6.860722 5.870026 -13.445404 0
M  V30 12 C 10.980101 8.323132 -8.133326 0
M  V30 13 C 7.940094 6.089284 -11.284899 0
M  V30 14 O 9.555075 8.136227 -12.291626 0 CHG=-1
M  V30 15 F 8.882874 6.169287 -6.083016 0
M  V30 16 C 7.901226 2.821967 -12.911535 0
M  V30 17 O 11.101068 6.569288 -12.649155 0
M  V30 18 C 5.391262 6.609046 -20.960500 0
M  V30 19 C 7.778221 5.780240 -20.475224 0 CFG=2
M  V30 20 C 9.801329 6.732281 -9.574582 0
M  V30 21 C 7.265351 4.346810 -20.728829 0
M  V30 22 N 7.135117 2.639025 -14.167664 0 CFG=1 CHG=1
M  V30 23 C 7.287520 3.905749 -12.013392 0
M  V30 24 N 7.715950 5.223168 -12.453007 0
M  V30 25 C 5.781722 4.158015 -20.355288 0
M  V30 26 C 7.169501 3.797286 -15.108643 0 CFG=1
M  V30 27 C 10.213815 5.346221 -17.077991 0
M  V30 28 C 9.462239 6.166347 -10.974478 0 CFG=2
M  V30 29 O 7.305058 8.100715 -21.089910 0
M  V30 30 C 7.889673 6.173379 -18.998161 0 CFG=1
M  V30 31 C 6.710655 6.225734 -18.058855 0 CFG=2
M  V30 32 O 11.834924 9.364184 -7.983088 0
M  V30 33 C 10.362705 7.763236 -7.011011 0
M  V30 34 C 7.409245 1.330625 -14.811036 0
M  V30 35 C 9.473958 6.691781 -7.160725 0
M  V30 36 C 8.739307 5.269666 -16.643161 0 CFG=1
M  V30 37 H 7.544405 4.151495 -18.107086 0
M  V30 38 H 5.042331 4.969396 -17.891698 0
M  V30 39 H 4.492099 7.900614 -18.468517 0
M  V30 40 H 3.261404 6.657723 -18.240984 0
M  V30 41 H 4.338970 7.075849 -16.925961 0
M  V30 42 H 4.003993 5.270185 -20.060809 0
M  V30 43 H 5.362561 4.552665 -14.217537 0
M  V30 44 H 6.026427 5.611367 -15.398367 0
M  V30 45 H 9.222770 4.405426 -14.762567 0
M  V30 46 H 9.033488 3.244577 -16.051005 0
M  V30 47 H 11.193034 8.265855 -10.266040 0
M  V30 48 H 8.505842 5.345082 -8.539115 0
M  V30 49 H 12.254019 9.608703 -8.795574 0
M  V30 50 H 7.037171 6.553885 -22.339131 0
M  V30 51 H 6.009561 6.331365 -12.942040 0
M  V30 52 H 7.429523 6.690393 -13.883757 0
M  V30 53 H 7.364848 5.748575 -10.424188 0
M  V30 54 H 7.548599 7.088070 -11.491780 0
M  V30 55 H 7.871960 1.878630 -12.367848 0
M  V30 56 H 8.962050 3.007437 -13.088428 0
M  V30 57 H 4.874877 6.390706 -21.894990 0
M  V30 58 H 4.961219 7.553829 -20.628685 0
M  V30 59 H 8.789496 5.832195 -20.879332 0
M  V30 60 H 7.893029 3.610409 -20.227749 0
M  V30 61 H 7.379864 4.126987 -21.792049 0
M  V30 62 H 7.684530 3.769389 -11.008451 0
M  V30 63 H 6.202740 3.830948 -11.932562 0
M  V30 64 H 5.684859 3.423438 -19.555261 0
M  V30 65 H 5.264888 3.716615 -21.208538 0
M  V30 66 H 6.635265 3.447956 -15.988063 0
M  V30 67 H 10.515834 4.438891 -17.602717 0
M  V30 68 H 10.407348 6.187414 -17.740778 0
M  V30 69 H 10.868648 5.461551 -16.212209 0
M  V30 70 H 9.864560 5.155079 -11.021043 0
M  V30 71 H 7.216474 8.312002 -20.173139 0
M  V30 72 H 8.580558 7.002912 -18.861921 0
M  V30 73 H 6.733508 7.052550 -17.351305 0
M  V30 74 H 10.568002 8.158690 -6.028509 0
M  V30 75 H 8.452649 1.240368 -15.118065 0
M  V30 76 H 7.194906 0.513682 -14.119680 0
M  V30 77 H 6.776635 1.180158 -15.687254 0
M  V30 78 H 8.491446 6.169292 -16.093782 0
M  V30 79 H 6.171562 2.576347 -13.873609 0
M  V30 END ATOM
M  V30 BEGIN BOND
M  V30 1 1 3 2
M  V30 2 1 4 2
M  V30 3 1 11 5
M  V30 4 2 12 7
M  V30 5 1 14 10
M  V30 6 2 17 10
M  V30 7 1 18 4
M  V30 8 1 18 9
M  V30 9 1 19 9
M  V30 10 1 20 7
M  V30 11 2 20 8
M  V30 12 1 21 19
M  V30 13 1 22 16
M  V30 14 1 23 16
M  V30 15 1 24 11
M  V30 16 1 24 13
M  V30 17 1 24 23
M  V30 18 1 25 4
M  V30 19 1 25 21
M  V30 20 1 26 5
M  V30 21 1 26 6
M  V30 22 1 26 22
M  V30 23 1 28 10
M  V30 24 1 28 13
M  V30 25 1 28 20
M  V30 26 1 29 9
M  V30 27 1 30 1
M  V30 28 1 30 19
M  V30 29 1 31 1
M  V30 30 1 31 2
M  V30 31 1 31 30
M  V30 32 1 32 12
M  V30 33 1 33 12
M  V30 34 1 34 22
M  V30 35 1 35 8
M  V30 36 1 35 15
M  V30 37 2 35 33
M  V30 38 1 36 1
M  V30 39 1 36 6
M  V30 40 1 36 27
M  V30 41 1 1 37 CFG=3
M  V30 42 1 2 38 CFG=1
M  V30 43 1 39 3
M  V30 44 1 40 3
M  V30 45 1 41 3
M  V30 46 1 4 42 CFG=1
M  V30 47 1 43 5
M  V30 48 1 44 5
M  V30 49 1 45 6
M  V30 50 1 46 6
M  V30 51 1 47 7
M  V30 52 1 48 8
M  V30 53 1 49 32
M  V30 54 1 9 50 CFG=3
M  V30 55 1 51 11
M  V30 56 1 52 11
M  V30 57 1 53 13
M  V30 58 1 54 13
M  V30 59 1 55 16
M  V30 60 1 56 16
M  V30 61 1 57 18
M  V30 62 1 58 18
M  V30 63 1 19 59 CFG=3
M  V30 64 1 60 21
M  V30 65 1 61 21
M  V30 66 1 62 23
M  V30 67 1 63 23
M  V30 68 1 64 25
M  V30 69 1 65 25
M  V30 70 1 26 66 CFG=3
M  V30 71 1 67 27
M  V30 72 1 68 27
M  V30 73 1 69 27
M  V30 74 1 28 70 CFG=1
M  V30 75 1 71 29
M  V30 76 1 30 72 CFG=3
M  V30 77 1 31 73 CFG=1
M  V30 78 1 74 33
M  V30 79 1 75 34
M  V30 80 1 76 34
M  V30 81 1 77 34
M  V30 82 1 36 78 CFG=1
M  V30 83 1 22 79 CFG=1
M  V30 END BOND
M  V30 END CTAB
M  END
>  <i_epik_Tot_Q>  (1) 
0

>  <i_epik_Tot_abs_Q>  (1) 
2

>  <i_i_glide_confnum>  (1) 
222

>  <i_i_glide_lignum>  (1) 
135

>  <i_i_glide_posenum>  (1) 
132

>  <i_i_glide_rotatable_bonds>  (1) 
9

>  <i_lp_mmshare_version>  (1) 
72125

>  <i_m_source_file_index>  (1) 
68

>  <i_f3d_flags>  (1) 
0

>  <num_sample>  (1) 
100

>  <b_lp_Chiralities_Consistent>  (1) 
1

>  <r_epik_Charging_Adjusted_Penalty>  (1) 
1.0015811376701689

>  <r_epik_Ionization_Penalty>  (1) 
0.014205467742633596

>  <r_epik_Ionization_Penalty_Charging>  (1) 
0.0035901324651834211

>  <r_epik_Ionization_Penalty_Neutral>  (1) 
0.010615335277450176

>  <r_epik_State_Penalty>  (1) 
0.99799100520498552

>  <r_glide_ring_energy>  (1) 
0.98456020224750307

>  <r_i_docking_score>  (1) 
-2.6911029873781516

>  <r_i_glide_ecoul>  (1) 
-0.73241492351144211

>  <r_i_glide_eff_state_penalty>  (1) 
0.99799100520498552

>  <r_i_glide_einternal>  (1) 
4.5680486755937153

>  <r_i_glide_emodel>  (1) 
-26.880242197646524

>  <r_i_glide_emodel_strain>  (1) 
5.4922675703787149

>  <r_i_glide_energy>  (1) 
-28.546088300238537

>  <r_i_glide_erotb>  (1) 
0.48522832276191719

>  <r_i_glide_esite>  (1) 
-0.030723951545442163

>  <r_i_glide_evdw>  (1) 
-27.813673376727095

>  <r_i_glide_gscore>  (1) 
-3.6890939925831372

>  <r_i_glide_gscore_strain>  (1) 
0.37306689259467873

>  <r_i_glide_hbond>  (1) 
0

>  <r_i_glide_ligand_efficiency>  (1) 
-0.074752860760504206

>  <r_i_glide_ligand_efficiency_ln>  (1) 
-0.58712596664531502

>  <r_i_glide_ligand_efficiency_sa>  (1) 
-0.24682850787793481

>  <r_i_glide_lipo>  (1) 
-2.1777373556331479

>  <r_i_glide_metal>  (1) 
-0

>  <r_i_glide_rewards>  (1) 
-0.83838199339807185

>  <r_lp_Energy>  (1) 
48.201639999999998

>  <s_epik_cmdline>  (1) 
J2VwaWtfcHl0aG9uJywgJy1waHQnLCAnMS4wJywgJy1waCcsICc3LjQnLCAnLXRuJywgJzgnLCAnLW1hJywgJzUwMCcsICctaW1hZScsICc8aW5maWxlLm1hZT4nLCAnLW9tYWUnLCAnPG91dGZpbGUubWFlPic=

>  <s_epik_input>  (1) 
W0NIM11bQ0BASF0oW0NAQEhdMTIpW0NAQEhdM1tDQEhdKFtDQEhdKFtDQEBIXShbQ0gyXTEpW09IXSlbQ0gyXVtDSDJdMilbQ0BIXTNbQ0BIXShbQ0gzXSlbQ0gyXVtDQEBIXTRbQ0gyXVtDSDJdTihbQ0gyXVtDSDJdTjRbQ0gzXSlbQ0gyXVtDQEBIXShDKD1PKVtPSF0pQyg9W0NIXUM1PU8pW0NIMl1DKEYpPVtDSF01

>  <s_glide_docking_method>  (1) 
confgen

>  <s_i_glide_gridfile>  (1) 
gpcr_drd2_6luq_protein_autoprepared_prepared

>  <s_lp_Force_Field>  (1) 
S-OPLS

>  <s_lp_Variant>  (1) 
DiffSBDD_67_num_sample_100-3

>  <s_m_source_file>  (1) 
generated__ligand_DiffSBDD_2026-05-06_prepared.sdf

>  <GenAI_Model>  (1) 
DiffSBDD

>  <Protein>  (1) 
generic_title2

$$$$
DiffSBDD_55_num_sample_100
     RDKit          3D

  0  0  0  0  0  0  0  0  0  0999 V3000
M  V30 BEGIN CTAB
M  V30 COUNTS 50 53 0 0 1
M  V30 BEGIN ATOM
M  V30 1 O 7.564563 4.458960 -11.860450 0
M  V30 2 C 4.943740 4.565321 -21.874310 0
M  V30 3 C 7.323608 0.419792 -14.687227 0
M  V30 4 C 6.600915 -0.470258 -17.584290 0
M  V30 5 C 8.047234 3.164979 -14.366951 0 CFG=2
M  V30 6 C 7.347954 2.468344 -13.209730 0 CFG=1
M  V30 7 S 5.935884 5.359464 -19.476889 0
M  V30 8 C 5.505112 5.811037 -21.178704 0
M  V30 9 C 5.570268 3.365457 -21.177747 0
M  V30 10 C 5.957668 5.709570 -12.916341 0
M  V30 11 N 7.622331 1.136603 -15.931207 0
M  V30 12 C 6.618219 3.480066 -12.291669 0 CFG=2
M  V30 13 C 6.518408 1.240200 -13.664018 0 CFG=2
M  V30 14 C 5.442184 4.285404 -12.859727 0
M  V30 15 C 6.926213 5.719356 -11.745141 0
M  V30 16 C 6.064434 2.689074 -18.798549 0
M  V30 17 C 6.670753 0.969531 -17.047259 0 CFG=1
M  V30 18 C 6.373966 3.660186 -19.918811 0 CFG=2
M  V30 19 C 7.302332 3.692361 -15.548208 0
M  V30 20 O 5.434857 2.223180 -21.610261 0
M  V30 21 O 6.234836 0.397715 -12.561512 0
M  V30 22 C 6.984850 1.924800 -18.190088 0
M  V30 23 C 8.188406 2.479247 -15.723019 0 CFG=1
M  V30 24 H 3.862904 4.511208 -21.746242 0
M  V30 25 H 5.163436 4.562700 -22.942123 0
M  V30 26 H 8.267533 0.129605 -14.224005 0
M  V30 27 H 6.811562 -0.517692 -14.896387 0
M  V30 28 H 5.937014 -0.531841 -18.447329 0
M  V30 29 H 7.584318 -0.821548 -17.898383 0
M  V30 30 H 6.216739 -1.172027 -16.845070 0
M  V30 31 H 8.882629 3.784825 -14.046972 0
M  V30 32 H 8.166721 2.058549 -12.615825 0
M  V30 33 H 4.792591 6.635960 -21.184822 0
M  V30 34 H 6.406477 6.150633 -21.690215 0
M  V30 35 H 5.172156 6.459455 -12.822876 0
M  V30 36 H 6.494099 5.886793 -13.848697 0
M  V30 37 H 6.234851 2.969305 -11.412564 0
M  V30 38 H 5.568894 1.539542 -14.095779 0
M  V30 39 H 5.034809 3.921721 -13.796443 0
M  V30 40 H 4.634838 4.239263 -12.133721 0
M  V30 41 H 6.393392 5.769441 -10.793637 0
M  V30 42 H 7.639971 6.542096 -11.787390 0
M  V30 43 H 5.034823 2.629058 -18.485807 0
M  V30 44 H 5.675035 1.233493 -16.690246 0
M  V30 45 H 7.434380 3.619815 -20.169327 0
M  V30 46 H 7.640067 4.632851 -15.978136 0
M  V30 47 H 6.234861 3.562271 -15.491670 0
M  V30 48 H 5.810491 -0.390801 -12.877842 0
M  V30 49 H 8.016597 1.976887 -18.507039 0
M  V30 50 H 9.104431 2.619121 -16.292560 0
M  V30 END ATOM
M  V30 BEGIN BOND
M  V30 1 1 6 5
M  V30 2 1 8 2
M  V30 3 1 8 7
M  V30 4 1 9 2
M  V30 5 1 11 3
M  V30 6 1 12 1
M  V30 7 1 12 6
M  V30 8 1 13 3
M  V30 9 1 13 6
M  V30 10 1 14 10
M  V30 11 1 14 12
M  V30 12 1 15 1
M  V30 13 1 15 10
M  V30 14 1 17 4
M  V30 15 1 17 11
M  V30 16 1 18 7
M  V30 17 1 18 9
M  V30 18 1 18 16
M  V30 19 1 19 5
M  V30 20 2 20 9
M  V30 21 1 21 13
M  V30 22 2 22 16
M  V30 23 1 22 17
M  V30 24 1 23 5
M  V30 25 1 23 11
M  V30 26 1 23 19
M  V30 27 1 24 2
M  V30 28 1 25 2
M  V30 29 1 26 3
M  V30 30 1 27 3
M  V30 31 1 28 4
M  V30 32 1 29 4
M  V30 33 1 30 4
M  V30 34 1 5 31 CFG=1
M  V30 35 1 6 32 CFG=1
M  V30 36 1 33 8
M  V30 37 1 34 8
M  V30 38 1 35 10
M  V30 39 1 36 10
M  V30 40 1 12 37 CFG=1
M  V30 41 1 13 38 CFG=3
M  V30 42 1 39 14
M  V30 43 1 40 14
M  V30 44 1 41 15
M  V30 45 1 42 15
M  V30 46 1 43 16
M  V30 47 1 17 44 CFG=1
M  V30 48 1 18 45 CFG=3
M  V30 49 1 46 19
M  V30 50 1 47 19
M  V30 51 1 48 21
M  V30 52 1 49 22
M  V30 53 1 23 50 CFG=3
M  V30 END BOND
M  V30 END CTAB
M  END
>  <i_epik_Tot_Q>  (1) 
0

>  <i_epik_Tot_abs_Q>  (1) 
0

>  <i_i_glide_confnum>  (1) 
126

>  <i_i_glide_lignum>  (1) 
110

>  <i_i_glide_posenum>  (1) 
31

>  <i_i_glide_rotatable_bonds>  (1) 
5

>  <i_lp_mmshare_version>  (1) 
72125

>  <i_m_source_file_index>  (1) 
56

>  <i_f3d_flags>  (1) 
0

>  <num_sample>  (1) 
100

>  <b_lp_Chiralities_Consistent>  (1) 
1

>  <r_epik_Charging_Adjusted_Penalty>  (1) 
1.1351003249830234

>  <r_epik_Ionization_Penalty>  (1) 
1.13510036387319

>  <r_epik_Ionization_Penalty_Charging>  (1) 
0

>  <r_epik_Ionization_Penalty_Neutral>  (1) 
1.13510036387319

>  <r_epik_State_Penalty>  (1) 
1.1351003249830234

>  <r_glide_ring_energy>  (1) 
1.1829721722469759

>  <r_i_docking_score>  (1) 
-2.6893271808199897

>  <r_i_glide_ecoul>  (1) 
0.37396551761570729

>  <r_i_glide_eff_state_penalty>  (1) 
1.1351003249830234

>  <r_i_glide_einternal>  (1) 
5.5010669590844472

>  <r_i_glide_emodel>  (1) 
-25.57198221244726

>  <r_i_glide_emodel_strain>  (1) 
0

>  <r_i_glide_energy>  (1) 
-23.684921458395976

>  <r_i_glide_erotb>  (1) 
0.4978175189556282

>  <r_i_glide_esite>  (1) 
0

>  <r_i_glide_evdw>  (1) 
-24.058886976011685

>  <r_i_glide_gscore>  (1) 
-3.8244275058030128

>  <r_i_glide_gscore_strain>  (1) 
0

>  <r_i_glide_hbond>  (1) 
-0.014562189347541521

>  <r_i_glide_ligand_efficiency>  (1) 
-0.11692726873130389

>  <r_i_glide_ligand_efficiency_ln>  (1) 
-0.65030369779292752

>  <r_i_glide_ligand_efficiency_sa>  (1) 
-0.33252559858918562

>  <r_i_glide_lipo>  (1) 
-1.6240708529300831

>  <r_i_glide_metal>  (1) 
-0

>  <r_i_glide_rewards>  (1) 
-1.5367624613227879

>  <r_lp_Energy>  (1) 
17.093762999999999

>  <r_lp_tautomer_probability>  (1) 
0.99995000000000001

>  <s_epik_cmdline>  (1) 
J2VwaWtfcHl0aG9uJywgJy1waHQnLCAnMS4wJywgJy1waCcsICc3LjQnLCAnLXRuJywgJzgnLCAnLW1hJywgJzUwMCcsICctaW1hZScsICc8aW5maWxlLm1hZT4nLCAnLW9tYWUnLCAnPG91dGZpbGUubWFlPic=

>  <s_epik_input>  (1) 
W0NIMl0xW0NIMl1bQ0gyXU9bQ0BASF0xW0NASF0yW0NASF0oW09IXSlbQ0gyXU4oW0NASF0oW0NASF0yMylbQ0gyXTMpW0NASF0oW0NIM10pXFtDSF09W0NIXVxbQ0BASF00U1tDSDJdW0NIMl1DND1P

>  <s_glide_docking_method>  (1) 
confgen

>  <s_i_glide_gridfile>  (1) 
gpcr_drd2_6luq_protein_autoprepared_prepared

>  <s_lp_Force_Field>  (1) 
S-OPLS

>  <s_lp_Variant>  (1) 
DiffSBDD_55_num_sample_100-11

>  <s_m_source_file>  (1) 
generated__ligand_DiffSBDD_2026-05-06_prepared.sdf

>  <GenAI_Model>  (1) 
DiffSBDD

>  <Protein>  (1) 
generic_title2

$$$$
DiffSBDD_68_num_sample_100
     RDKit          3D

  0  0  0  0  0  0  0  0  0  0999 V3000
M  V30 BEGIN CTAB
M  V30 COUNTS 88 93 0 0 1
M  V30 BEGIN ATOM
M  V30 1 C 11.466577 6.608022 -20.553336 0
M  V30 2 C 13.029289 4.676286 -17.742023 0
M  V30 3 C 20.587147 10.562871 -21.171131 0
M  V30 4 C 17.329350 5.955528 -20.225074 0
M  V30 5 C 5.104440 5.942608 -20.087299 0
M  V30 6 C 8.369928 4.464034 -20.135983 0 CFG=1
M  V30 7 O 10.147564 5.697492 -22.355585 0
M  V30 8 C 10.188328 3.192420 -18.052348 0
M  V30 9 O 4.864345 4.594869 -20.399957 0
M  V30 10 C 17.425691 5.673367 -17.698111 0
M  V30 11 C 7.951642 3.336827 -19.154972 0
M  V30 12 C 19.861076 10.352226 -22.431670 0
M  V30 13 C 20.052364 8.252742 -20.366103 0 CFG=2
M  V30 14 C 7.777929 5.889915 -19.756057 0 CFG=2
M  V30 15 C 13.022910 4.720396 -20.288433 0 CFG=1
M  V30 16 C 19.277988 7.931119 -21.601014 0 CFG=2
M  V30 17 O 5.195138 6.755085 -21.236515 0
M  V30 18 C 19.235410 8.976857 -22.698670 0
M  V30 19 C 5.054105 8.153541 -16.005739 0
M  V30 20 C 10.768584 4.328837 -18.918542 0 CFG=1
M  V30 21 C 15.188430 5.163624 -18.986477 0 CFG=2
M  V30 22 C 14.551923 4.465594 -17.763915 0
M  V30 23 O 8.630753 6.570195 -18.865293 0
M  V30 24 O 6.066787 5.391852 -17.979911 0
M  V30 25 C 18.551151 8.116070 -20.280531 0 CFG=1
M  V30 26 C 10.489967 5.603154 -21.178329 0
M  V30 27 C 6.263846 6.077936 -16.749479 0 CFG=1
M  V30 28 C 14.550851 4.526618 -20.245805 0
M  V30 29 C 8.691004 3.366669 -17.817839 0
M  V30 30 C 12.326435 4.152902 -19.019500 0 CFG=2
M  V30 31 C 5.034723 6.860995 -16.362343 0
M  V30 32 O 6.635992 5.184036 -15.713456 0
M  V30 33 C 20.662604 9.586475 -20.244522 0
M  V30 34 C 9.962022 4.461522 -20.270469 0 CFG=2
M  V30 35 C 7.790947 4.039318 -21.515552 0
M  V30 36 O 7.171140 5.959769 -14.600871 0
M  V30 37 N 18.034277 7.006532 -19.538252 0
M  V30 38 S 19.760360 11.610043 -23.513823 0
M  V30 39 C 18.082604 6.910680 -18.232105 0
M  V30 40 O 12.805663 6.114103 -20.515070 0
M  V30 41 O 18.604482 7.739720 -17.491690 0
M  V30 42 C 16.745733 5.120390 -19.013347 0 CFG=1
M  V30 43 C 6.336870 6.123167 -19.173936 0 CFG=2
M  V30 44 H 11.457739 7.529549 -21.134792 0
M  V30 45 H 11.149242 6.884217 -19.549789 0
M  V30 46 H 12.628246 4.190732 -16.851961 0
M  V30 47 H 12.821368 5.740632 -17.620873 0
M  V30 48 H 21.063608 11.514446 -20.983232 0
M  V30 49 H 18.015883 5.355542 -20.823719 0
M  V30 50 H 16.570441 6.386913 -20.877967 0
M  V30 51 H 4.234694 6.284993 -19.527692 0
M  V30 52 H 10.685898 3.154808 -17.084925 0
M  V30 53 H 10.372287 2.226724 -18.525847 0
M  V30 54 H 4.991776 4.092275 -19.608756 0
M  V30 55 H 16.744038 5.945996 -16.895141 0
M  V30 56 H 18.204164 5.008958 -17.315355 0
M  V30 57 H 6.876888 3.336102 -18.986359 0
M  V30 58 H 8.157079 2.369481 -19.617407 0
M  V30 59 H 20.675295 7.456363 -19.961579 0
M  V30 60 H 7.829571 6.504212 -20.655651 0
M  V30 61 H 12.678139 4.162662 -21.160531 0
M  V30 62 H 19.367804 6.911617 -21.971090 0
M  V30 63 H 5.135426 7.661351 -20.976034 0
M  V30 64 H 18.193350 9.117864 -22.988940 0
M  V30 65 H 4.145114 8.669132 -15.737344 0
M  V30 66 H 5.979137 8.711059 -15.978264 0
M  V30 67 H 10.610333 5.234505 -18.338469 0
M  V30 68 H 14.902825 6.216484 -18.952149 0
M  V30 69 H 14.779462 3.399075 -17.779190 0
M  V30 70 H 14.946276 4.843013 -16.823439 0
M  V30 71 H 8.681431 6.067612 -18.066147 0
M  V30 72 H 17.986811 9.041572 -20.176319 0
M  V30 73 H 7.058022 6.799775 -16.871129 0
M  V30 74 H 14.780705 3.460515 -20.270713 0
M  V30 75 H 14.970274 4.935162 -21.163302 0
M  V30 76 H 8.498952 4.295501 -17.284332 0
M  V30 77 H 8.324823 2.562717 -17.178713 0
M  V30 78 H 12.521221 3.080011 -19.061227 0
M  V30 79 H 4.097274 6.326066 -16.382008 0
M  V30 80 H 21.200718 9.780249 -19.328091 0
M  V30 81 H 10.215674 3.552507 -20.816528 0
M  V30 82 H 8.405692 3.274509 -21.990973 0
M  V30 83 H 6.801604 3.598245 -21.442494 0
M  V30 84 H 7.717555 4.869797 -22.217607 0
M  V30 85 H 6.389790 6.108396 -14.088770 0
M  V30 86 H 19.738826 8.558269 -23.571184 0
M  V30 87 H 17.044993 4.078692 -19.136468 0
M  V30 88 H 6.286057 7.188153 -18.932716 0
M  V30 END ATOM
M  V30 BEGIN BOND
M  V30 1 1 9 5
M  V30 2 1 11 6
M  V30 3 1 12 3
M  V30 4 1 14 6
M  V30 5 1 16 13
M  V30 6 1 17 5
M  V30 7 1 18 12
M  V30 8 1 18 16
M  V30 9 1 20 8
M  V30 10 1 22 2
M  V30 11 1 22 21
M  V30 12 1 23 14
M  V30 13 1 25 13
M  V30 14 1 25 16
M  V30 15 1 26 1
M  V30 16 2 26 7
M  V30 17 1 27 24
M  V30 18 1 28 15
M  V30 19 1 28 21
M  V30 20 1 29 8
M  V30 21 1 29 11
M  V30 22 1 30 2
M  V30 23 1 30 15
M  V30 24 1 30 20
M  V30 25 2 31 19
M  V30 26 1 31 27
M  V30 27 1 32 27
M  V30 28 2 33 3
M  V30 29 1 33 13
M  V30 30 1 34 6
M  V30 31 1 34 20
M  V30 32 1 34 26
M  V30 33 1 6 35 CFG=3
M  V30 34 1 36 32
M  V30 35 1 37 4
M  V30 36 1 37 25
M  V30 37 2 38 12
M  V30 38 1 39 10
M  V30 39 1 39 37
M  V30 40 1 40 1
M  V30 41 1 40 15
M  V30 42 2 41 39
M  V30 43 1 42 4
M  V30 44 1 42 10
M  V30 45 1 42 21
M  V30 46 1 43 5
M  V30 47 1 43 14
M  V30 48 1 43 24
M  V30 49 1 44 1
M  V30 50 1 45 1
M  V30 51 1 46 2
M  V30 52 1 47 2
M  V30 53 1 48 3
M  V30 54 1 49 4
M  V30 55 1 50 4
M  V30 56 1 51 5
M  V30 57 1 52 8
M  V30 58 1 53 8
M  V30 59 1 54 9
M  V30 60 1 55 10
M  V30 61 1 56 10
M  V30 62 1 57 11
M  V30 63 1 58 11
M  V30 64 1 13 59 CFG=1
M  V30 65 1 14 60 CFG=3
M  V30 66 1 15 61 CFG=3
M  V30 67 1 16 62 CFG=3
M  V30 68 1 63 17
M  V30 69 1 64 18
M  V30 70 1 65 19
M  V30 71 1 66 19
M  V30 72 1 20 67 CFG=1
M  V30 73 1 21 68 CFG=1
M  V30 74 1 69 22
M  V30 75 1 70 22
M  V30 76 1 71 23
M  V30 77 1 25 72 CFG=3
M  V30 78 1 27 73 CFG=3
M  V30 79 1 74 28
M  V30 80 1 75 28
M  V30 81 1 76 29
M  V30 82 1 77 29
M  V30 83 1 30 78 CFG=3
M  V30 84 1 79 31
M  V30 85 1 80 33
M  V30 86 1 34 81 CFG=3
M  V30 87 1 82 35
M  V30 88 1 83 35
M  V30 89 1 84 35
M  V30 90 1 85 36
M  V30 91 1 86 18
M  V30 92 1 42 87 CFG=3
M  V30 93 1 43 88 CFG=1
M  V30 END BOND
M  V30 END CTAB
M  END
>  <i_epik_Tot_Q>  (1) 
0

>  <i_epik_Tot_abs_Q>  (1) 
0

>  <i_i_glide_confnum>  (1) 
2950

>  <i_i_glide_lignum>  (1) 
137

>  <i_i_glide_posenum>  (1) 
191

>  <i_i_glide_rotatable_bonds>  (1) 
13

>  <i_lp_mmshare_version>  (1) 
72125

>  <i_m_source_file_index>  (1) 
69

>  <i_f3d_flags>  (1) 
0

>  <num_sample>  (1) 
100

>  <b_lp_Chiralities_Consistent>  (1) 
1

>  <r_epik_Charging_Adjusted_Penalty>  (1) 
0

>  <r_epik_Ionization_Penalty>  (1) 
0.00032218278010154739

>  <r_epik_Ionization_Penalty_Charging>  (1) 
0

>  <r_epik_Ionization_Penalty_Neutral>  (1) 
0.00032218278010154739

>  <r_epik_State_Penalty>  (1) 
-0

>  <r_glide_ring_energy>  (1) 
0

>  <r_i_docking_score>  (1) 
-2.6745482968976675

>  <r_i_glide_ecoul>  (1) 
-0.11614763074593053

>  <r_i_glide_eff_state_penalty>  (1) 
-0

>  <r_i_glide_einternal>  (1) 
35.623448135041855

>  <r_i_glide_emodel>  (1) 
-14.929823147678292

>  <r_i_glide_emodel_strain>  (1) 
0.42075042309033961

>  <r_i_glide_energy>  (1) 
-30.083231600191574

>  <r_i_glide_erotb>  (1) 
0.36271052330308029

>  <r_i_glide_esite>  (1) 
0

>  <r_i_glide_evdw>  (1) 
-29.967083969445643

>  <r_i_glide_gscore>  (1) 
-2.6745482968976675

>  <r_i_glide_gscore_strain>  (1) 
0

>  <r_i_glide_hbond>  (1) 
0

>  <r_i_glide_ligand_efficiency>  (1) 
-0.062198797602271337

>  <r_i_glide_ligand_efficiency_ln>  (1) 
-0.56173826596407772

>  <r_i_glide_ligand_efficiency_sa>  (1) 
-0.21790714687818388

>  <r_i_glide_lipo>  (1) 
-0.89725166146508972

>  <r_i_glide_metal>  (1) 
-0

>  <r_i_glide_rewards>  (1) 
-0.62423081565148608

>  <r_lp_Energy>  (1) 
44.537447999999998

>  <r_lp_tautomer_probability>  (1) 
1

>  <s_epik_Chemistry_Notes>  (1) 
This compound contains an acetal/aminal-like group ( X-CH(R)-Y where X, Y are N, S, or O) that may be acid/base labile, releasing an aldehyde.

>  <s_epik_cmdline>  (1) 
J2VwaWtfcHl0aG9uJywgJy1waHQnLCAnMS4wJywgJy1waCcsICc3LjQnLCAnLXRuJywgJzgnLCAnLW1hJywgJzUwMCcsICctaW1hZScsICc8aW5maWxlLm1hZT4nLCAnLW9tYWUnLCAnPG91dGZpbGUubWFlPic=

>  <s_epik_input>  (1) 
W0NIMl09W0NIXVtDQEBIXShPW09IXSlPW0NASF0oW0NIXShbT0hdKVtPSF0pW0NAQEhdKFtPSF0pW0NAXShbQ0gzXSkoW0NIMl1bQ0gyXVtDSDJdMSlbQ0BASF0oQyg9TylbQ0gyXU8yKVtDQEBIXTFbQ0BASF0oW0NAQEhdMjMpW0NIMl1bQ0gyXVtDQEhdKFtDSDJdMylbQ0BIXShbQ0gyXUM0PU8pW0NIMl1ONFtDQEBIXTVbQ0BIXShbQ0BIXTU2KVtDSF09QyhbU0hdKVtDSF09W0NIXTY=

>  <s_glide_docking_method>  (1) 
confgen

>  <s_i_glide_gridfile>  (1) 
gpcr_drd2_6luq_protein_autoprepared_prepared

>  <s_lp_Force_Field>  (1) 
S-OPLS

>  <s_lp_Variant>  (1) 
DiffSBDD_68_num_sample_100-1

>  <s_m_source_file>  (1) 
generated__ligand_DiffSBDD_2026-05-06_prepared.sdf

>  <GenAI_Model>  (1) 
DiffSBDD

>  <Protein>  (1) 
generic_title2

$$$$
DiffSBDD_33_num_sample_100
     RDKit          3D

  0  0  0  0  0  0  0  0  0  0999 V3000
M  V30 BEGIN CTAB
M  V30 COUNTS 81 82 0 0 1
M  V30 BEGIN ATOM
M  V30 1 C 7.260597 5.573621 -15.083031 0
M  V30 2 C 8.055124 -1.042654 -17.962161 0
M  V30 3 C 7.841194 1.618500 -17.056775 0
M  V30 4 C 10.715261 6.706305 -6.754215 0
M  V30 5 C 6.849099 4.309543 -12.879652 0
M  V30 6 C 7.718276 3.039582 -16.545829 0
M  V30 7 C 6.699808 0.804444 -17.122239 0
M  V30 8 C 7.112876 4.400323 -14.389506 0
M  V30 9 C 7.288789 6.930193 -14.511288 0
M  V30 10 C 7.325614 7.252090 -13.245194 0
M  V30 11 C 8.027434 3.825527 -12.011240 0
M  V30 12 C 8.480147 8.601789 -11.506803 0
M  V30 13 C 11.938553 10.291093 -6.032256 0
M  V30 14 C 9.280526 4.708226 -11.988401 0
M  V30 15 C 10.481082 6.400671 -5.264620 0
M  V30 16 C 4.820348 -1.404998 -18.964057 0 CFG=2
M  V30 17 C 7.197547 3.049762 -15.090412 0
M  V30 18 C 11.132115 10.491530 -4.744671 0
M  V30 19 C 7.588855 7.468303 -11.983345 0
M  V30 20 C 9.200434 -0.223542 -17.907770 0
M  V30 21 C 10.681394 8.223683 -7.050559 0 CFG=1
M  V30 22 C 9.447319 5.472511 -10.659724 0
M  V30 23 C 5.665191 -1.871521 -20.157714 0
M  V30 24 O 4.357646 -0.093358 -19.215057 0
M  V30 25 C 9.094669 1.107399 -17.454131 0
M  V30 26 N 4.635019 -1.059307 -16.525659 0
M  V30 27 C 11.968932 8.843084 -6.500219 0
M  V30 28 C 6.801568 -0.527705 -17.567799 0
M  V30 29 C 5.561228 -1.409867 -17.608419 0 CFG=2
M  V30 30 C 10.298527 6.751738 -10.839922 0
M  V30 31 O 11.678762 9.769304 -3.657081 0
M  V30 32 O 10.699745 8.474904 -8.444328 0
M  V30 33 C 9.658045 8.137064 -10.578661 0 CFG=2
M  V30 34 C 9.434840 8.337351 -9.070614 0
M  V30 35 H 7.416311 5.502095 -16.147602 0
M  V30 36 H 8.138672 -2.064648 -18.302343 0
M  V30 37 H 11.679350 6.300934 -7.064595 0
M  V30 38 H 9.976603 6.153947 -7.333210 0
M  V30 39 H 6.316340 5.142623 -12.442276 0
M  V30 40 H 6.084720 3.535977 -12.784381 0
M  V30 41 H 8.685811 3.541466 -16.605843 0
M  V30 42 H 7.034605 3.574014 -17.207299 0
M  V30 43 H 5.741852 1.199287 -16.817359 0
M  V30 44 H 7.434919 7.721276 -15.220207 0
M  V30 45 H 7.649937 3.769363 -10.993359 0
M  V30 46 H 8.308661 2.809259 -12.292790 0
M  V30 47 H 7.869899 9.359020 -11.014500 0
M  V30 48 H 8.905374 9.096551 -12.378614 0
M  V30 49 H 11.551902 10.947982 -6.799129 0
M  V30 50 H 12.978615 10.569520 -5.891838 0
M  V30 51 H 10.163440 4.084874 -12.136764 0
M  V30 52 H 9.283775 5.380646 -12.843547 0
M  V30 53 H 11.079175 5.556748 -4.931094 0
M  V30 54 H 9.434926 6.169267 -5.092516 0
M  V30 55 H 10.724150 7.229160 -4.605526 0
M  V30 56 H 3.947195 -2.058213 -18.892426 0
M  V30 57 H 7.879411 2.434460 -14.501611 0
M  V30 58 H 6.234854 2.556526 -15.010770 0
M  V30 59 H 11.034778 11.541352 -4.493565 0
M  V30 60 H 10.126788 10.169300 -4.915078 0
M  V30 61 H 7.278191 6.767519 -11.235319 0
M  V30 62 H 10.160203 -0.617022 -18.208658 0
M  V30 63 H 9.799931 8.678670 -6.594036 0
M  V30 64 H 8.512160 5.683335 -10.149328 0
M  V30 65 H 9.908349 4.793592 -9.948398 0
M  V30 66 H 6.058585 -2.874593 -19.989144 0
M  V30 67 H 6.508534 -1.208479 -20.348491 0
M  V30 68 H 5.065111 -1.901726 -21.066974 0
M  V30 69 H 5.095684 0.492733 -19.141230 0
M  V30 70 H 9.975132 1.732364 -17.404566 0
M  V30 71 H 3.742064 -0.782529 -16.931931 0
M  V30 72 H 4.459062 -1.875202 -15.935703 0
M  V30 73 H 12.234814 8.283569 -5.617769 0
M  V30 74 H 12.777136 8.698155 -7.216574 0
M  V30 75 H 5.905924 -2.428647 -17.426862 0
M  V30 76 H 11.094910 6.670249 -10.104970 0
M  V30 77 H 10.805971 6.752794 -11.803824 0
M  V30 78 H 11.778024 8.863521 -3.907482 0
M  V30 79 H 10.477145 8.816787 -10.793314 0
M  V30 80 H 8.924684 7.471248 -8.658757 0
M  V30 81 H 8.840288 9.227339 -8.857461 0
M  V30 END ATOM
M  V30 BEGIN BOND
M  V30 1 1 6 3
M  V30 2 2 7 3
M  V30 3 2 8 1
M  V30 4 1 8 5
M  V30 5 1 9 1
M  V30 6 2 10 9
M  V30 7 1 11 5
M  V30 8 1 14 11
M  V30 9 1 15 4
M  V30 10 1 17 6
M  V30 11 1 17 8
M  V30 12 1 18 13
M  V30 13 2 19 10
M  V30 14 1 19 12
M  V30 15 1 20 2
M  V30 16 1 21 4
M  V30 17 1 22 14
M  V30 18 1 23 16
M  V30 19 1 24 16
M  V30 20 1 25 3
M  V30 21 2 25 20
M  V30 22 1 27 13
M  V30 23 1 27 21
M  V30 24 2 28 2
M  V30 25 1 28 7
M  V30 26 1 29 16
M  V30 27 1 29 26
M  V30 28 1 29 28
M  V30 29 1 30 22
M  V30 30 1 31 18
M  V30 31 1 32 21
M  V30 32 1 33 12
M  V30 33 1 33 30
M  V30 34 1 34 32
M  V30 35 1 34 33
M  V30 36 1 35 1
M  V30 37 1 36 2
M  V30 38 1 37 4
M  V30 39 1 38 4
M  V30 40 1 39 5
M  V30 41 1 40 5
M  V30 42 1 41 6
M  V30 43 1 42 6
M  V30 44 1 43 7
M  V30 45 1 44 9
M  V30 46 1 45 11
M  V30 47 1 46 11
M  V30 48 1 47 12
M  V30 49 1 48 12
M  V30 50 1 49 13
M  V30 51 1 50 13
M  V30 52 1 51 14
M  V30 53 1 52 14
M  V30 54 1 53 15
M  V30 55 1 54 15
M  V30 56 1 55 15
M  V30 57 1 16 56 CFG=1
M  V30 58 1 57 17
M  V30 59 1 58 17
M  V30 60 1 59 18
M  V30 61 1 60 18
M  V30 62 1 61 19
M  V30 63 1 62 20
M  V30 64 1 21 63 CFG=1
M  V30 65 1 64 22
M  V30 66 1 65 22
M  V30 67 1 66 23
M  V30 68 1 67 23
M  V30 69 1 68 23
M  V30 70 1 69 24
M  V30 71 1 70 25
M  V30 72 1 71 26
M  V30 73 1 72 26
M  V30 74 1 73 27
M  V30 75 1 74 27
M  V30 76 1 29 75 CFG=1
M  V30 77 1 76 30
M  V30 78 1 77 30
M  V30 79 1 78 31
M  V30 80 1 33 79 CFG=3
M  V30 81 1 80 34
M  V30 82 1 81 34
M  V30 END BOND
M  V30 END CTAB
M  END
>  <i_epik_Tot_Q>  (1) 
0

>  <i_epik_Tot_abs_Q>  (1) 
0

>  <i_i_glide_confnum>  (1) 
224

>  <i_i_glide_lignum>  (1) 
59

>  <i_i_glide_posenum>  (1) 
280

>  <i_i_glide_rotatable_bonds>  (1) 
14

>  <i_lp_mmshare_version>  (1) 
72125

>  <i_m_source_file_index>  (1) 
34

>  <i_f3d_flags>  (1) 
0

>  <num_sample>  (1) 
100

>  <b_lp_Chiralities_Consistent>  (1) 
1

>  <r_epik_Charging_Adjusted_Penalty>  (1) 
1.2129050419488003

>  <r_epik_Ionization_Penalty>  (1) 
1.2129053275801602

>  <r_epik_Ionization_Penalty_Charging>  (1) 
0

>  <r_epik_Ionization_Penalty_Neutral>  (1) 
1.2129053275801602

>  <r_epik_State_Penalty>  (1) 
1.2129050419488003

>  <r_glide_ring_energy>  (1) 
0

>  <r_i_docking_score>  (1) 
-2.6671930413255796

>  <r_i_glide_ecoul>  (1) 
0.15061307882226016

>  <r_i_glide_eff_state_penalty>  (1) 
1.2129050419488003

>  <r_i_glide_einternal>  (1) 
11.175747063661408

>  <r_i_glide_emodel>  (1) 
-23.096541083431447

>  <r_i_glide_emodel_strain>  (1) 
4.9552492588488803

>  <r_i_glide_energy>  (1) 
-27.811093992318511

>  <r_i_glide_erotb>  (1) 
1.0070902464162688

>  <r_i_glide_esite>  (1) 
0

>  <r_i_glide_evdw>  (1) 
-27.961707071140772

>  <r_i_glide_gscore>  (1) 
-3.8800980832743797

>  <r_i_glide_gscore_strain>  (1) 
0.23881231471222009

>  <r_i_glide_hbond>  (1) 
-0.0060018743684321146

>  <r_i_glide_ligand_efficiency>  (1) 
-0.078446854156634688

>  <r_i_glide_ligand_efficiency_ln>  (1) 
-0.58925775505957056

>  <r_i_glide_ligand_efficiency_sa>  (1) 
-0.25413735449892738

>  <r_i_glide_lipo>  (1) 
-3.0123627981829721

>  <r_i_glide_metal>  (1) 
-0

>  <r_i_glide_rewards>  (1) 
-0.73214258011776456

>  <r_lp_Energy>  (1) 
8.1818030000000004

>  <s_epik_cmdline>  (1) 
J2VwaWtfcHl0aG9uJywgJy1waHQnLCAnMS4wJywgJy1waCcsICc3LjQnLCAnLXRuJywgJzgnLCAnLW1hJywgJzUwMCcsICctaW1hZScsICc8aW5maWxlLm1hZT4nLCAnLW9tYWUnLCAnPG91dGZpbGUubWFlPic=

>  <s_epik_input>  (1) 
W0NIM11bQ0BIXShbT0hdKVtDQEhdKFtOSDJdKWMoW2NIXVtjSF1bY0hdMSlbY0hdYzFbQ0gyXVtDSDJdQ1wyPVtDSF1cW0NIXT1DPVtDSF1bQ0gyXVtDQEhdKFtDSDJdW0NIMl1bQ0gyXVtDSDJdW0NIMl0yKVtDSDJdT1tDQEBIXShbQ0gyXVtDSDNdKVtDSDJdW0NIMl1bQ0gyXVtPSF0=

>  <s_glide_docking_method>  (1) 
confgen

>  <s_i_glide_gridfile>  (1) 
gpcr_drd2_6luq_protein_autoprepared_prepared

>  <s_lp_Force_Field>  (1) 
S-OPLS

>  <s_lp_Variant>  (1) 
DiffSBDD_33_num_sample_100-2

>  <s_m_source_file>  (1) 
generated__ligand_DiffSBDD_2026-05-06_prepared.sdf

>  <GenAI_Model>  (1) 
DiffSBDD

>  <Protein>  (1) 
generic_title2

$$$$
DiffSBDD_67_num_sample_100
     RDKit          3D

  0  0  0  0  0  0  0  0  0  0999 V3000
M  V30 BEGIN CTAB
M  V30 COUNTS 79 83 0 0 1
M  V30 BEGIN ATOM
M  V30 1 C 9.444894 6.728131 -10.536821 0 CFG=2
M  V30 2 C 9.601850 6.610393 -8.012382 0 CFG=1
M  V30 3 C 9.227388 5.492407 -7.091593 0
M  V30 4 C 10.499370 7.625845 -7.292937 0 CFG=1
M  V30 5 C 7.575726 6.568926 -15.082136 0
M  V30 6 C 8.190153 6.709918 -12.646978 0
M  V30 7 C 4.684305 8.418015 -20.290978 0
M  V30 8 C 6.980910 8.175923 -21.092064 0
M  V30 9 C 12.572975 8.194481 -8.757059 0 CFG=2
M  V30 10 C 5.797620 5.363756 -19.729688 0
M  V30 11 C 7.161099 5.732566 -16.302271 0
M  V30 12 C 4.450473 9.404465 -21.271588 0
M  V30 13 C 5.562349 6.983620 -17.749751 0
M  V30 14 O 4.634692 5.277478 -20.184534 0 CHG=-1
M  V30 15 F 7.730092 9.521314 -22.921013 0
M  V30 16 C 5.094588 5.289992 -14.339491 0
M  V30 17 O 6.648429 4.446985 -19.714945 0
M  V30 18 C 12.033178 7.546794 -7.461238 0
M  V30 19 C 11.498070 8.310069 -9.837872 0 CFG=2
M  V30 20 C 5.953950 7.798495 -20.198286 0
M  V30 21 C 10.468853 9.254659 -9.245369 0
M  V30 22 N 5.915692 5.929681 -13.299452 0 CFG=2 CHG=1
M  V30 23 C 4.902998 6.201550 -15.586569 0
M  V30 24 N 5.786350 5.958194 -16.716085 0
M  V30 25 C 10.086135 8.969306 -7.761298 0
M  V30 26 C 7.346739 5.949875 -13.690908 0 CFG=1
M  V30 27 C 9.830197 4.808092 -12.182020 0
M  V30 28 C 6.222555 6.718840 -19.137004 0 CFG=2
M  V30 29 O 13.824426 7.769488 -9.229825 0
M  V30 30 C 10.911268 6.999663 -10.321561 0 CFG=1
M  V30 31 C 10.125720 6.128918 -9.342396 0 CFG=2
M  V30 32 O 3.228626 10.003699 -21.359979 0
M  V30 33 C 5.478098 9.773977 -22.159444 0
M  V30 34 C 5.684007 5.318855 -11.960939 0
M  V30 35 C 6.741903 9.161371 -22.068929 0
M  V30 36 C 8.845231 5.821404 -11.583313 0 CFG=1
M  V30 37 H 8.774212 7.543889 -10.327184 0
M  V30 38 H 8.634951 7.070143 -8.205221 0
M  V30 39 H 10.073381 5.369316 -6.425014 0
M  V30 40 H 8.366396 5.770551 -6.481506 0
M  V30 41 H 8.992645 4.567522 -7.614399 0
M  V30 42 H 10.275499 7.594494 -6.224966 0
M  V30 43 H 8.634895 6.569274 -15.204558 0
M  V30 44 H 7.250180 7.609711 -15.123352 0
M  V30 45 H 9.007730 7.269027 -13.091628 0
M  V30 46 H 7.571670 7.478561 -12.179248 0
M  V30 47 H 3.893016 8.136683 -19.613254 0
M  V30 48 H 7.952626 7.708041 -21.029163 0
M  V30 49 H 2.602897 9.648304 -20.745929 0
M  V30 50 H 12.817446 9.218830 -8.480310 0
M  V30 51 H 7.282413 4.672903 -16.076092 0
M  V30 52 H 7.839439 5.911149 -17.132600 0
M  V30 53 H 5.851843 7.961250 -17.366367 0
M  V30 54 H 4.486334 7.037506 -17.902023 0
M  V30 55 H 5.530189 4.327491 -14.608355 0
M  V30 56 H 4.139534 5.035719 -13.891711 0
M  V30 57 H 12.443509 8.188556 -6.691641 0
M  V30 58 H 12.387465 6.556347 -7.228537 0
M  V30 59 H 11.950148 8.802329 -10.691672 0
M  V30 60 H 9.578483 9.369282 -9.859886 0
M  V30 61 H 11.034786 10.175809 -9.330853 0
M  V30 62 H 5.003287 7.245911 -15.285978 0
M  V30 63 H 3.895828 6.090722 -15.986226 0
M  V30 64 H 9.026736 9.155419 -7.585204 0
M  V30 65 H 10.624795 9.646385 -7.091038 0
M  V30 66 H 7.667238 4.913478 -13.760072 0
M  V30 67 H 10.634928 5.328080 -12.693854 0
M  V30 68 H 10.234632 4.169376 -11.405385 0
M  V30 69 H 9.374482 4.124869 -12.893965 0
M  V30 70 H 7.302881 6.697639 -19.008386 0
M  V30 71 H 14.174611 8.460486 -9.776218 0
M  V30 72 H 11.522281 6.571269 -11.107548 0
M  V30 73 H 10.234815 5.051764 -9.384997 0
M  V30 74 H 5.297811 10.528355 -22.911926 0
M  V30 75 H 6.176202 4.348195 -11.879747 0
M  V30 76 H 6.046302 5.970350 -11.165787 0
M  V30 77 H 4.634965 5.161246 -11.733935 0
M  V30 78 H 8.096348 5.243922 -11.050791 0
M  V30 79 H 5.602314 6.887489 -13.233852 0
M  V30 END ATOM
M  V30 BEGIN BOND
M  V30 1 1 3 2
M  V30 2 1 4 2
M  V30 3 1 11 5
M  V30 4 2 12 7
M  V30 5 1 14 10
M  V30 6 2 17 10
M  V30 7 1 18 4
M  V30 8 1 18 9
M  V30 9 1 19 9
M  V30 10 1 20 7
M  V30 11 2 20 8
M  V30 12 1 21 19
M  V30 13 1 22 16
M  V30 14 1 23 16
M  V30 15 1 24 11
M  V30 16 1 24 13
M  V30 17 1 24 23
M  V30 18 1 25 4
M  V30 19 1 25 21
M  V30 20 1 26 5
M  V30 21 1 26 6
M  V30 22 1 26 22
M  V30 23 1 28 10
M  V30 24 1 28 13
M  V30 25 1 28 20
M  V30 26 1 29 9
M  V30 27 1 30 1
M  V30 28 1 30 19
M  V30 29 1 31 1
M  V30 30 1 31 2
M  V30 31 1 31 30
M  V30 32 1 32 12
M  V30 33 1 33 12
M  V30 34 1 34 22
M  V30 35 1 35 8
M  V30 36 1 35 15
M  V30 37 2 35 33
M  V30 38 1 36 1
M  V30 39 1 36 6
M  V30 40 1 36 27
M  V30 41 1 1 37 CFG=1
M  V30 42 1 2 38 CFG=3
M  V30 43 1 39 3
M  V30 44 1 40 3
M  V30 45 1 41 3
M  V30 46 1 4 42 CFG=1
M  V30 47 1 43 5
M  V30 48 1 44 5
M  V30 49 1 45 6
M  V30 50 1 46 6
M  V30 51 1 47 7
M  V30 52 1 48 8
M  V30 53 1 49 32
M  V30 54 1 9 50 CFG=1
M  V30 55 1 51 11
M  V30 56 1 52 11
M  V30 57 1 53 13
M  V30 58 1 54 13
M  V30 59 1 55 16
M  V30 60 1 56 16
M  V30 61 1 57 18
M  V30 62 1 58 18
M  V30 63 1 19 59 CFG=3
M  V30 64 1 60 21
M  V30 65 1 61 21
M  V30 66 1 62 23
M  V30 67 1 63 23
M  V30 68 1 64 25
M  V30 69 1 65 25
M  V30 70 1 26 66 CFG=3
M  V30 71 1 67 27
M  V30 72 1 68 27
M  V30 73 1 69 27
M  V30 74 1 28 70 CFG=1
M  V30 75 1 71 29
M  V30 76 1 30 72 CFG=3
M  V30 77 1 31 73 CFG=1
M  V30 78 1 74 33
M  V30 79 1 75 34
M  V30 80 1 76 34
M  V30 81 1 77 34
M  V30 82 1 36 78 CFG=1
M  V30 83 1 22 79 CFG=1
M  V30 END BOND
M  V30 END CTAB
M  END
>  <i_epik_Tot_Q>  (1) 
0

>  <i_epik_Tot_abs_Q>  (1) 
2

>  <i_i_glide_confnum>  (1) 
701

>  <i_i_glide_lignum>  (1) 
136

>  <i_i_glide_posenum>  (1) 
59

>  <i_i_glide_rotatable_bonds>  (1) 
9

>  <i_lp_mmshare_version>  (1) 
72125

>  <i_m_source_file_index>  (1) 
68

>  <i_f3d_flags>  (1) 
0

>  <num_sample>  (1) 
100

>  <b_lp_Chiralities_Consistent>  (1) 
1

>  <r_epik_Charging_Adjusted_Penalty>  (1) 
1.0015811376701689

>  <r_epik_Ionization_Penalty>  (1) 
0.014205467742633596

>  <r_epik_Ionization_Penalty_Charging>  (1) 
0.0035901324651834211

>  <r_epik_Ionization_Penalty_Neutral>  (1) 
0.010615335277450176

>  <r_epik_State_Penalty>  (1) 
0.99799100520498552

>  <r_glide_ring_energy>  (1) 
1.1792338284735682

>  <r_i_docking_score>  (1) 
-2.6658591070625595

>  <r_i_glide_ecoul>  (1) 
-4.8713055172655571

>  <r_i_glide_eff_state_penalty>  (1) 
0.99799100520498552

>  <r_i_glide_einternal>  (1) 
59.67460876126971

>  <r_i_glide_emodel>  (1) 
21.485527108735162

>  <r_i_glide_emodel_strain>  (1) 
2.5587933006495263

>  <r_i_glide_energy>  (1) 
-7.7770362587840038

>  <r_i_glide_erotb>  (1) 
0.48522832276191719

>  <r_i_glide_esite>  (1) 
-0.030875895239466586

>  <r_i_glide_evdw>  (1) 
-2.9057307415184468

>  <r_i_glide_gscore>  (1) 
-3.6638501122675451

>  <r_i_glide_gscore_strain>  (1) 
0

>  <r_i_glide_hbond>  (1) 
0

>  <r_i_glide_ligand_efficiency>  (1) 
-0.074051641862848877

>  <r_i_glide_ligand_efficiency_ln>  (1) 
-0.58161843397128288

>  <r_i_glide_ligand_efficiency_sa>  (1) 
-0.24451313409232681

>  <r_i_glide_lipo>  (1) 
-2.2063263702610878

>  <r_i_glide_metal>  (1) 
-0

>  <r_i_glide_rewards>  (1) 
-1.0358938048631523

>  <r_lp_Energy>  (1) 
48.874657999999997

>  <s_epik_cmdline>  (1) 
J2VwaWtfcHl0aG9uJywgJy1waHQnLCAnMS4wJywgJy1waCcsICc3LjQnLCAnLXRuJywgJzgnLCAnLW1hJywgJzUwMCcsICctaW1hZScsICc8aW5maWxlLm1hZT4nLCAnLW9tYWUnLCAnPG91dGZpbGUubWFlPic=

>  <s_epik_input>  (1) 
W0NIM11bQ0BASF0oW0NAQEhdMTIpW0NAQEhdM1tDQEhdKFtDQEhdKFtDQEBIXShbQ0gyXTEpW09IXSlbQ0gyXVtDSDJdMilbQ0BIXTNbQ0BIXShbQ0gzXSlbQ0gyXVtDQEBIXTRbQ0gyXVtDSDJdTihbQ0gyXVtDSDJdTjRbQ0gzXSlbQ0gyXVtDQEBIXShDKD1PKVtPSF0pQyg9W0NIXUM1PU8pW0NIMl1DKEYpPVtDSF01

>  <s_glide_docking_method>  (1) 
confgen

>  <s_i_glide_gridfile>  (1) 
gpcr_drd2_6luq_protein_autoprepared_prepared

>  <s_lp_Force_Field>  (1) 
S-OPLS

>  <s_lp_Variant>  (1) 
DiffSBDD_67_num_sample_100-4

>  <s_m_source_file>  (1) 
generated__ligand_DiffSBDD_2026-05-06_prepared.sdf

>  <GenAI_Model>  (1) 
DiffSBDD

>  <Protein>  (1) 
generic_title2

$$$$
DiffSBDD_80_num_sample_100
     RDKit          3D

  0  0  0  0  0  0  0  0  0  0999 V3000
M  V30 BEGIN CTAB
M  V30 COUNTS 57 60 0 0 1
M  V30 BEGIN ATOM
M  V30 1 C 17.340855 6.782728 -21.694241 0
M  V30 2 C 13.841345 4.915310 -20.750463 0
M  V30 3 O 18.324282 6.169298 -17.629918 0
M  V30 4 C 10.236036 6.337426 -19.966839 0
M  V30 5 C 18.616170 6.190574 -18.824519 0
M  V30 6 C 11.487174 4.267716 -21.476342 0
M  V30 7 C 17.996430 5.196557 -19.813660 0
M  V30 8 C 19.613876 7.201577 -19.378617 0
M  V30 9 C 15.101584 3.945597 -18.893244 0
M  V30 10 C 15.597634 6.196846 -19.777309 0 CFG=2
M  V30 11 C 10.072031 4.680608 -21.796815 0 CFG=2
M  V30 12 O 4.234855 5.427314 -21.552377 0 CHG=-1
M  V30 13 C 8.051853 5.470131 -20.639304 0
M  V30 14 C 14.745171 7.370751 -20.291676 0
M  V30 15 C 9.470426 5.547522 -20.739903 0
M  V30 16 C 5.745296 6.141705 -19.819709 0
M  V30 17 C 11.712505 6.300368 -20.013745 0
M  V30 18 F 5.224812 7.323665 -20.163637 0
M  V30 19 C 12.342077 5.250982 -20.717814 0
M  V30 20 C 16.608553 6.794888 -23.046089 0
M  V30 21 C 7.276653 6.268573 -19.880113 0
M  V30 22 C 7.501041 4.438741 -21.418682 0
M  V30 23 C 16.814741 5.738749 -20.669713 0 CFG=1
M  V30 24 O 11.903197 3.179723 -21.875933 0
M  V30 25 S 8.705135 3.477055 -22.302169 0
M  V30 26 N 14.604206 5.157036 -19.533545 0
M  V30 27 F 5.387313 5.940061 -18.549966 0
M  V30 28 C 12.423346 7.343638 -19.190297 0
M  V30 29 C 13.711669 7.777637 -19.278399 0
M  V30 30 C 6.175215 4.178444 -21.470051 0
M  V30 31 C 5.109582 4.966588 -20.691473 0 CFG=2
M  V30 32 H 17.372244 7.782583 -21.262629 0
M  V30 33 H 18.377959 6.547036 -21.933680 0
M  V30 34 H 13.929764 3.840872 -20.910660 0
M  V30 35 H 14.292733 5.292899 -21.667604 0
M  V30 36 H 9.765136 6.977816 -19.239098 0
M  V30 37 H 18.788055 4.833792 -20.469506 0
M  V30 38 H 17.679569 4.326776 -19.242018 0
M  V30 39 H 20.013029 6.871836 -20.337293 0
M  V30 40 H 20.449323 7.328408 -18.691670 0
M  V30 41 H 19.130134 8.168439 -19.516750 0
M  V30 42 H 15.647195 4.191834 -17.982099 0
M  V30 43 H 15.755490 3.376405 -19.554075 0
M  V30 44 H 14.266436 3.301231 -18.616122 0
M  V30 45 H 15.972665 6.501047 -18.800762 0
M  V30 46 H 10.179123 5.335786 -22.661546 0
M  V30 47 H 15.382852 8.246838 -20.401196 0
M  V30 48 H 14.274759 7.278614 -21.266437 0
M  V30 49 H 17.095234 7.485076 -23.735593 0
M  V30 50 H 15.570459 7.105510 -22.966457 0
M  V30 51 H 16.623940 5.808155 -23.509519 0
M  V30 52 H 7.716153 7.051322 -19.285165 0
M  V30 53 H 16.497657 4.887128 -21.271806 0
M  V30 54 H 11.833740 7.818440 -18.424555 0
M  V30 55 H 14.035173 8.536605 -18.580598 0
M  V30 56 H 5.817619 3.361686 -22.079911 0
M  V30 57 H 4.792650 4.216292 -19.965383 0
M  V30 END ATOM
M  V30 BEGIN BOND
M  V30 1 2 5 3
M  V30 2 1 7 5
M  V30 3 1 8 5
M  V30 4 1 11 6
M  V30 5 1 14 10
M  V30 6 2 15 4
M  V30 7 1 15 11
M  V30 8 1 15 13
M  V30 9 1 17 4
M  V30 10 1 18 16
M  V30 11 1 19 2
M  V30 12 1 19 6
M  V30 13 2 19 17
M  V30 14 1 20 1
M  V30 15 2 21 13
M  V30 16 1 21 16
M  V30 17 1 22 13
M  V30 18 1 23 1
M  V30 19 1 23 7
M  V30 20 1 23 10
M  V30 21 2 24 6
M  V30 22 1 25 11
M  V30 23 1 25 22
M  V30 24 1 26 2
M  V30 25 1 26 9
M  V30 26 1 26 10
M  V30 27 1 27 16
M  V30 28 1 28 17
M  V30 29 1 29 14
M  V30 30 2 29 28
M  V30 31 2 30 22
M  V30 32 1 31 12
M  V30 33 1 31 16
M  V30 34 1 31 30
M  V30 35 1 32 1
M  V30 36 1 33 1
M  V30 37 1 34 2
M  V30 38 1 35 2
M  V30 39 1 36 4
M  V30 40 1 37 7
M  V30 41 1 38 7
M  V30 42 1 39 8
M  V30 43 1 40 8
M  V30 44 1 41 8
M  V30 45 1 42 9
M  V30 46 1 43 9
M  V30 47 1 44 9
M  V30 48 1 10 45 CFG=1
M  V30 49 1 11 46 CFG=3
M  V30 50 1 47 14
M  V30 51 1 48 14
M  V30 52 1 49 20
M  V30 53 1 50 20
M  V30 54 1 51 20
M  V30 55 1 52 21
M  V30 56 1 23 53 CFG=3
M  V30 57 1 54 28
M  V30 58 1 55 29
M  V30 59 1 56 30
M  V30 60 1 31 57 CFG=1
M  V30 END BOND
M  V30 END CTAB
M  END
>  <i_epik_Tot_Q>  (1) 
-1

>  <i_epik_Tot_abs_Q>  (1) 
1

>  <i_i_glide_confnum>  (1) 
1

>  <i_i_glide_lignum>  (1) 
165

>  <i_i_glide_posenum>  (1) 
190

>  <i_i_glide_rotatable_bonds>  (1) 
4

>  <i_lp_mmshare_version>  (1) 
72125

>  <i_m_source_file_index>  (1) 
81

>  <i_f3d_flags>  (1) 
0

>  <num_sample>  (1) 
100

>  <b_lp_Chiralities_Consistent>  (1) 
1

>  <r_epik_Charging_Adjusted_Penalty>  (1) 
8.7803366933407872e-06

>  <r_epik_Ionization_Penalty>  (1) 
0.00048743314384941063

>  <r_epik_Ionization_Penalty_Charging>  (1) 
8.7803366933407872e-06

>  <r_epik_Ionization_Penalty_Neutral>  (1) 
0.00047865280715606983

>  <r_epik_State_Penalty>  (1) 
-0

>  <r_glide_ring_energy>  (1) 
0

>  <r_i_docking_score>  (1) 
-2.6598116565414065

>  <r_i_glide_ecoul>  (1) 
-2.3267238713477543

>  <r_i_glide_eff_state_penalty>  (1) 
-0

>  <r_i_glide_einternal>  (1) 
1.2711828596060535

>  <r_i_glide_emodel>  (1) 
-26.192572421278292

>  <r_i_glide_emodel_strain>  (1) 
0

>  <r_i_glide_energy>  (1) 
-21.793501983306889

>  <r_i_glide_erotb>  (1) 
0.20077648214602295

>  <r_i_glide_esite>  (1) 
0

>  <r_i_glide_evdw>  (1) 
-19.466778111959133

>  <r_i_glide_gscore>  (1) 
-2.6598116565414065

>  <r_i_glide_gscore_strain>  (1) 
0

>  <r_i_glide_hbond>  (1) 
-0.0094317757449081351

>  <r_i_glide_ligand_efficiency>  (1) 
-0.085800376017464722

>  <r_i_glide_ligand_efficiency_ln>  (1) 
-0.59986904198796653

>  <r_i_glide_ligand_efficiency_sa>  (1) 
-0.26953164118917022

>  <r_i_glide_lipo>  (1) 
-0.5467904332292467

>  <r_i_glide_metal>  (1) 
-0

>  <r_i_glide_rewards>  (1) 
-0.98201844341315514

>  <r_lp_Energy>  (1) 
61.855367999999999

>  <r_lp_tautomer_probability>  (1) 
1

>  <s_epik_cmdline>  (1) 
J2VwaWtfcHl0aG9uJywgJy1waHQnLCAnMS4wJywgJy1waCcsICc3LjQnLCAnLXRuJywgJzgnLCAnLW1hJywgJzUwMCcsICctaW1hZScsICc8aW5maWxlLm1hZT4nLCAnLW9tYWUnLCAnPG91dGZpbGUubWFlPic=

>  <s_epik_input>  (1) 
Tz1DKFtDSDNdKVtDSDJdW0NAQEhdKFtDSDJdW0NIM10pW0NAQEhdKFtDSDJdL1tDSF09W0NIXVwxKU4oW0NIM10pW0NIMl1DKEMyPU8pPUMxW0NIXT1DKFtDQEhdMjMpQz00QyhTMyk9W0NIXVtDQEhdKFtPSF0pQyhGKShGKVtDSF00

>  <s_glide_docking_method>  (1) 
confgen

>  <s_i_glide_gridfile>  (1) 
gpcr_drd2_6luq_protein_autoprepared_prepared

>  <s_lp_Force_Field>  (1) 
S-OPLS

>  <s_lp_Variant>  (1) 
DiffSBDD_80_num_sample_100-4

>  <s_m_source_file>  (1) 
generated__ligand_DiffSBDD_2026-05-06_prepared.sdf

>  <GenAI_Model>  (1) 
DiffSBDD

>  <Protein>  (1) 
generic_title2

$$$$
DiffSBDD_25_num_sample_100
     RDKit          3D

  0  0  0  0  0  0  0  0  0  0999 V3000
M  V30 BEGIN CTAB
M  V30 COUNTS 65 68 0 0 1
M  V30 BEGIN ATOM
M  V30 1 C 9.485622 7.984725 -6.679979 0
M  V30 2 C 7.523804 2.764110 -17.542659 0
M  V30 3 C 7.327653 4.203861 -15.467223 0
M  V30 4 C 8.246024 6.050042 -11.294246 0 CFG=2
M  V30 5 C 5.330821 -0.203823 -15.711670 0
M  V30 6 O 7.611664 -0.435373 -16.276057 0
M  V30 7 C 7.604587 0.298387 -15.063141 0 CFG=1
M  V30 8 C 6.318043 -0.445880 -16.862585 0 CFG=2
M  V30 9 F 6.634813 3.568986 -18.123294 0
M  V30 10 C 6.227943 0.548985 -18.047138 0
M  V30 11 C 11.566222 7.768912 -10.549324 0
M  V30 12 C 8.140245 1.732246 -15.262502 0
M  V30 13 F 8.733420 3.280461 -17.770632 0
M  V30 14 C 6.045009 4.707806 -12.004204 0 CFG=1
M  V30 15 N 12.016186 8.021129 -9.264500 0
M  V30 16 C 7.251455 2.745593 -16.009937 0 CFG=2
M  V30 17 O 6.118183 7.049767 -11.891682 0
M  V30 18 C 8.519308 8.579621 -12.006457 0
M  V30 19 C 6.250353 3.841279 -13.259091 0
M  V30 20 F 6.234948 4.055704 -10.859636 0
M  V30 21 C 9.210095 7.260361 -11.617937 0 CFG=1
M  V30 22 C 7.269085 5.852332 -13.694684 0
M  V30 23 C 10.895541 7.945180 -8.544259 0
M  V30 24 C 9.070299 4.744390 -11.196583 0
M  V30 25 C 6.186223 0.166486 -14.510551 0
M  V30 26 O 9.764014 7.671174 -9.256803 0
M  V30 27 O 9.434808 4.569324 -9.842603 0
M  V30 28 C 7.478923 1.416567 -18.294507 0
M  V30 29 N 7.339621 4.435222 -14.016759 0
M  V30 30 C 10.216970 7.550751 -10.536607 0
M  V30 31 O 10.795448 8.117756 -7.213409 0
M  V30 32 C 6.957812 5.944448 -12.191453 0 CFG=1
M  V30 33 H 9.530012 8.100046 -5.598214 0
M  V30 34 H 8.816858 8.752279 -7.073138 0
M  V30 35 H 9.060815 7.001961 -6.894146 0
M  V30 36 H 6.502578 4.765501 -15.905369 0
M  V30 37 H 8.226305 4.669760 -15.870784 0
M  V30 38 H 7.834824 6.169000 -10.293100 0
M  V30 39 H 4.604213 0.569250 -15.941568 0
M  V30 40 H 4.756546 -1.101275 -15.493167 0
M  V30 41 H 8.292436 -0.209291 -14.385803 0
M  V30 42 H 6.157146 -1.452722 -17.252655 0
M  V30 43 H 5.348373 1.185367 -17.977121 0
M  V30 44 H 6.065548 -0.044716 -18.946624 0
M  V30 45 H 12.248271 7.767755 -11.385355 0
M  V30 46 H 9.044942 1.645423 -15.841159 0
M  V30 47 H 8.411438 2.108626 -14.277464 0
M  V30 48 H 4.996447 4.994919 -11.980696 0
M  V30 49 H 6.234838 2.419338 -15.864143 0
M  V30 50 H 6.288242 7.316352 -10.983559 0
M  V30 51 H 9.243272 9.334897 -12.291652 0
M  V30 52 H 7.873140 8.478514 -12.876332 0
M  V30 53 H 7.930536 8.977677 -11.180344 0
M  V30 54 H 5.335202 3.835016 -13.851809 0
M  V30 55 H 6.485909 2.815960 -12.985960 0
M  V30 56 H 9.780988 6.971145 -12.501199 0
M  V30 57 H 6.450752 6.311482 -14.252658 0
M  V30 58 H 8.180419 6.372470 -13.986729 0
M  V30 59 H 9.959787 4.771174 -11.828518 0
M  V30 60 H 8.519390 3.860598 -11.506450 0
M  V30 61 H 6.159210 -0.630693 -13.769858 0
M  V30 62 H 5.829036 1.062746 -14.011273 0
M  V30 63 H 8.658675 4.664125 -9.310890 0
M  V30 64 H 7.522826 1.644136 -19.360969 0
M  V30 65 H 8.389898 0.846911 -18.112379 0
M  V30 END ATOM
M  V30 BEGIN BOND
M  V30 1 1 7 6
M  V30 2 1 8 5
M  V30 3 1 8 6
M  V30 4 1 9 2
M  V30 5 1 10 8
M  V30 6 1 12 7
M  V30 7 1 13 2
M  V30 8 1 15 11
M  V30 9 1 16 2
M  V30 10 1 16 3
M  V30 11 1 16 12
M  V30 12 1 19 14
M  V30 13 1 20 14
M  V30 14 1 21 4
M  V30 15 1 21 18
M  V30 16 2 23 15
M  V30 17 1 24 4
M  V30 18 1 25 5
M  V30 19 1 25 7
M  V30 20 1 26 23
M  V30 21 1 27 24
M  V30 22 1 28 2
M  V30 23 1 28 10
M  V30 24 1 29 3
M  V30 25 1 29 19
M  V30 26 1 29 22
M  V30 27 2 30 11
M  V30 28 1 30 21
M  V30 29 1 30 26
M  V30 30 1 31 1
M  V30 31 1 31 23
M  V30 32 1 32 4
M  V30 33 1 32 14
M  V30 34 1 32 17 CFG=3
M  V30 35 1 32 22
M  V30 36 1 33 1
M  V30 37 1 34 1
M  V30 38 1 35 1
M  V30 39 1 36 3
M  V30 40 1 37 3
M  V30 41 1 4 38 CFG=1
M  V30 42 1 39 5
M  V30 43 1 40 5
M  V30 44 1 7 41 CFG=1
M  V30 45 1 8 42 CFG=3
M  V30 46 1 43 10
M  V30 47 1 44 10
M  V30 48 1 45 11
M  V30 49 1 46 12
M  V30 50 1 47 12
M  V30 51 1 14 48 CFG=1
M  V30 52 1 16 49 CFG=3
M  V30 53 1 50 17
M  V30 54 1 51 18
M  V30 55 1 52 18
M  V30 56 1 53 18
M  V30 57 1 54 19
M  V30 58 1 55 19
M  V30 59 1 21 56 CFG=3
M  V30 60 1 57 22
M  V30 61 1 58 22
M  V30 62 1 59 24
M  V30 63 1 60 24
M  V30 64 1 61 25
M  V30 65 1 62 25
M  V30 66 1 63 27
M  V30 67 1 64 28
M  V30 68 1 65 28
M  V30 END BOND
M  V30 END CTAB
M  END
>  <i_epik_Tot_Q>  (1) 
0

>  <i_epik_Tot_abs_Q>  (1) 
0

>  <i_i_glide_confnum>  (1) 
403

>  <i_i_glide_lignum>  (1) 
40

>  <i_i_glide_posenum>  (1) 
198

>  <i_i_glide_rotatable_bonds>  (1) 
9

>  <i_lp_mmshare_version>  (1) 
72125

>  <i_m_source_file_index>  (1) 
26

>  <i_f3d_flags>  (1) 
0

>  <num_sample>  (1) 
100

>  <b_lp_Chiralities_Consistent>  (1) 
1

>  <r_epik_Charging_Adjusted_Penalty>  (1) 
1.0631091651627218

>  <r_epik_Ionization_Penalty>  (1) 
1.0631126298453322

>  <r_epik_Ionization_Penalty_Charging>  (1) 
0

>  <r_epik_Ionization_Penalty_Neutral>  (1) 
1.0631126298453322

>  <r_epik_State_Penalty>  (1) 
1.0631091651627218

>  <r_glide_ring_energy>  (1) 
1.3601753823805443

>  <r_i_docking_score>  (1) 
-2.6497456218412507

>  <r_i_glide_ecoul>  (1) 
-2.7448321447930359

>  <r_i_glide_eff_state_penalty>  (1) 
1.0631091651627218

>  <r_i_glide_einternal>  (1) 
12.138892875827498

>  <r_i_glide_emodel>  (1) 
-35.406454644652868

>  <r_i_glide_emodel_strain>  (1) 
2.3137981545147852

>  <r_i_glide_energy>  (1) 
-35.124996939929702

>  <r_i_glide_erotb>  (1) 
0.56501407927423541

>  <r_i_glide_esite>  (1) 
-0.011226944718958186

>  <r_i_glide_evdw>  (1) 
-32.380164795136665

>  <r_i_glide_gscore>  (1) 
-3.7128547870039723

>  <r_i_glide_gscore_strain>  (1) 
0

>  <r_i_glide_hbond>  (1) 
-0.16

>  <r_i_glide_ligand_efficiency>  (1) 
-0.082804550682539085

>  <r_i_glide_ligand_efficiency_ln>  (1) 
-0.5933502740679385

>  <r_i_glide_ligand_efficiency_sa>  (1) 
-0.26288806172243329

>  <r_i_glide_lipo>  (1) 
-1.3506689478808978

>  <r_i_glide_metal>  (1) 
-0

>  <r_i_glide_rewards>  (1) 
-0.72523991220256323

>  <r_lp_Energy>  (1) 
23.195093

>  <s_epik_cmdline>  (1) 
J2VwaWtfcHl0aG9uJywgJy1waHQnLCAnMS4wJywgJy1waCcsICc3LjQnLCAnLXRuJywgJzgnLCAnLW1hJywgJzUwMCcsICctaW1hZScsICc8aW5maWxlLm1hZT4nLCAnLW9tYWUnLCAnPG91dGZpbGUubWFlPic=

>  <s_epik_input>  (1) 
W0NIM11PYzFuW2NIXWMobzEpW0NASF0oW0NIM10pW0NASF0oW0NIMl1bT0hdKVtDQF0yKFtPSF0pW0NASF0oRilbQ0gyXU4oW0NIMl0yKVtDSDJdW0NASF0oW0NIMl0zKUMoRikoRilbQ0gyXVtDSDJdW0NASF0oW0NIMl1bQ0gyXTQpT1tDQEBIXTM0

>  <s_glide_docking_method>  (1) 
confgen

>  <s_i_glide_gridfile>  (1) 
gpcr_drd2_6luq_protein_autoprepared_prepared

>  <s_lp_Force_Field>  (1) 
S-OPLS

>  <s_lp_Variant>  (1) 
DiffSBDD_25_num_sample_100-3

>  <s_m_source_file>  (1) 
generated__ligand_DiffSBDD_2026-05-06_prepared.sdf

>  <GenAI_Model>  (1) 
DiffSBDD

>  <Protein>  (1) 
generic_title2

$$$$
DiffSBDD_89_num_sample_100
     RDKit          3D

  0  0  0  0  0  0  0  0  0  0999 V3000
M  V30 BEGIN CTAB
M  V30 COUNTS 74 79 0 0 1
M  V30 BEGIN ATOM
M  V30 1 C 8.673637 5.352829 -14.016654 0
M  V30 2 C 9.654724 5.582927 -11.537111 0
M  V30 3 C 9.463970 6.161077 -12.969199 0
M  V30 4 C 6.657605 6.518105 -11.747177 0
M  V30 5 C 9.247813 5.955226 -9.053094 0 CFG=1
M  V30 6 C 10.540949 8.775738 -6.838058 0 CFG=2
M  V30 7 C 6.961698 0.305568 -15.248877 0
M  V30 8 C 10.424834 6.541759 -8.325267 0 CFG=2
M  V30 9 C 7.238951 -0.630617 -16.413553 0
M  V30 10 C 6.396178 0.615072 -12.896446 0
M  V30 11 C 10.947932 6.234361 -6.905692 0
M  V30 12 C 9.003898 4.547965 -8.618780 0
M  V30 13 C 7.306415 2.298721 -16.797642 0
M  V30 14 C 11.834795 9.204770 -7.561813 0
M  V30 15 C 6.433425 2.005862 -13.065280 0
M  V30 16 C 9.034842 7.094711 -8.047628 0 CFG=1
M  V30 17 C 13.569378 8.569236 -9.297291 0
M  V30 18 C 7.423165 5.729904 -10.668559 0
M  V30 19 C 7.000797 1.707656 -15.427068 0
M  V30 20 C 11.465554 7.282422 -9.165567 0
M  V30 21 C 8.701853 5.769362 -15.485411 0
M  V30 22 C 6.317508 5.687482 -12.992858 0
M  V30 23 C 7.406098 4.708629 -13.477091 0 CFG=1
M  V30 24 C 9.443947 4.569199 -15.056636 0
M  V30 25 C 12.493237 8.077152 -8.363112 0 CFG=2
M  V30 26 N 8.820525 6.169307 -10.480086 0
M  V30 27 C 10.823313 7.495012 -6.001948 0
M  V30 28 C 9.328642 8.571955 -7.822082 0
M  V30 29 O 6.782111 3.927247 -14.496778 0
M  V30 30 C 6.743769 2.560880 -14.326543 0
M  V30 31 C 6.662509 -0.230693 -13.981632 0
M  V30 32 H 10.634836 5.942625 -11.294719 0
M  V30 33 H 9.686302 4.492737 -11.512279 0
M  V30 34 H 9.085944 7.179862 -12.927266 0
M  V30 35 H 10.476472 6.249254 -13.367461 0
M  V30 36 H 7.178045 7.437557 -12.006282 0
M  V30 37 H 5.717717 6.868186 -11.315377 0
M  V30 38 H 10.281549 9.581257 -6.150995 0
M  V30 39 H 6.537606 -1.462494 -16.382189 0
M  V30 40 H 7.128481 -0.178075 -17.396097 0
M  V30 41 H 8.250271 -1.030624 -16.335665 0
M  V30 42 H 6.161569 0.193860 -11.928912 0
M  V30 43 H 11.948311 5.812331 -6.925470 0
M  V30 44 H 10.353239 5.469132 -6.431630 0
M  V30 45 H 8.973505 4.465091 -7.540251 0
M  V30 46 H 8.031627 4.169399 -8.908183 0
M  V30 47 H 9.818110 3.914198 -8.986888 0
M  V30 48 H 6.596126 1.934000 -17.537341 0
M  V30 49 H 7.224390 3.383829 -16.817579 0
M  V30 50 H 8.316133 2.026799 -17.108722 0
M  V30 51 H 11.639103 10.015635 -8.250775 0
M  V30 52 H 12.546754 9.586507 -6.828082 0
M  V30 53 H 6.221971 2.649778 -12.226584 0
M  V30 54 H 8.466086 6.716909 -7.199197 0
M  V30 55 H 13.113176 9.257453 -10.012067 0
M  V30 56 H 14.358083 9.017535 -8.695881 0
M  V30 57 H 14.036288 7.769315 -9.860970 0
M  V30 58 H 6.866164 5.769241 -9.731943 0
M  V30 59 H 7.380017 4.660674 -10.849307 0
M  V30 60 H 12.023990 6.569341 -9.739860 0
M  V30 61 H 10.970983 7.915529 -9.903191 0
M  V30 62 H 7.811619 5.621375 -16.095186 0
M  V30 63 H 9.435066 6.440220 -15.891669 0
M  V30 64 H 6.033779 6.357302 -13.805239 0
M  V30 65 H 5.426742 5.101955 -12.765061 0
M  V30 66 H 7.761807 4.057224 -12.689574 0
M  V30 67 H 10.528512 4.642862 -15.091675 0
M  V30 68 H 9.034827 3.643078 -15.435008 0
M  V30 69 H 13.030589 7.433472 -7.675046 0
M  V30 70 H 11.706037 7.617818 -5.375807 0
M  V30 71 H 9.992467 7.346173 -5.312258 0
M  V30 72 H 9.453482 9.081804 -8.775641 0
M  V30 73 H 8.436042 9.000504 -7.371563 0
M  V30 74 H 6.634836 -1.296783 -13.842987 0
M  V30 END ATOM
M  V30 BEGIN BOND
M  V30 1 1 3 1
M  V30 2 1 3 2
M  V30 3 1 8 5
M  V30 4 1 9 7
M  V30 5 1 8 11 CFG=1
M  V30 6 1 5 12 CFG=1
M  V30 7 1 14 6
M  V30 8 1 15 10
M  V30 9 1 16 5
M  V30 10 1 16 8
M  V30 11 1 18 4
M  V30 12 2 19 7
M  V30 13 1 19 13
M  V30 14 1 20 8
M  V30 15 1 21 1
M  V30 16 1 22 4
M  V30 17 1 23 1
M  V30 18 1 23 22
M  V30 19 1 24 1
M  V30 20 1 24 21
M  V30 21 1 25 14
M  V30 22 1 25 17
M  V30 23 1 25 20
M  V30 24 1 26 2
M  V30 25 1 26 5
M  V30 26 1 26 18
M  V30 27 1 27 6
M  V30 28 1 27 11
M  V30 29 1 28 6
M  V30 30 1 28 16
M  V30 31 1 29 23
M  V30 32 2 30 15
M  V30 33 1 30 19
M  V30 34 1 30 29
M  V30 35 1 31 7
M  V30 36 2 31 10
M  V30 37 1 32 2
M  V30 38 1 33 2
M  V30 39 1 34 3
M  V30 40 1 35 3
M  V30 41 1 36 4
M  V30 42 1 37 4
M  V30 43 1 6 38 CFG=1
M  V30 44 1 39 9
M  V30 45 1 40 9
M  V30 46 1 41 9
M  V30 47 1 42 10
M  V30 48 1 43 11
M  V30 49 1 44 11
M  V30 50 1 45 12
M  V30 51 1 46 12
M  V30 52 1 47 12
M  V30 53 1 48 13
M  V30 54 1 49 13
M  V30 55 1 50 13
M  V30 56 1 51 14
M  V30 57 1 52 14
M  V30 58 1 53 15
M  V30 59 1 16 54 CFG=1
M  V30 60 1 55 17
M  V30 61 1 56 17
M  V30 62 1 57 17
M  V30 63 1 58 18
M  V30 64 1 59 18
M  V30 65 1 60 20
M  V30 66 1 61 20
M  V30 67 1 62 21
M  V30 68 1 63 21
M  V30 69 1 64 22
M  V30 70 1 65 22
M  V30 71 1 23 66 CFG=1
M  V30 72 1 67 24
M  V30 73 1 68 24
M  V30 74 1 25 69 CFG=1
M  V30 75 1 70 27
M  V30 76 1 71 27
M  V30 77 1 72 28
M  V30 78 1 73 28
M  V30 79 1 74 31
M  V30 END BOND
M  V30 END CTAB
M  END
>  <i_epik_Tot_Q>  (1) 
0

>  <i_epik_Tot_abs_Q>  (1) 
0

>  <i_i_glide_confnum>  (1) 
120

>  <i_i_glide_lignum>  (1) 
180

>  <i_i_glide_posenum>  (1) 
390

>  <i_i_glide_rotatable_bonds>  (1) 
3

>  <i_lp_mmshare_version>  (1) 
72125

>  <i_m_source_file_index>  (1) 
90

>  <i_f3d_flags>  (1) 
0

>  <num_sample>  (1) 
100

>  <b_lp_Chiralities_Consistent>  (1) 
1

>  <r_epik_Charging_Adjusted_Penalty>  (1) 
1.2690052337476654

>  <r_epik_Ionization_Penalty>  (1) 
1.2690052337476654

>  <r_epik_Ionization_Penalty_Charging>  (1) 
0

>  <r_epik_Ionization_Penalty_Neutral>  (1) 
1.2690052337476654

>  <r_epik_State_Penalty>  (1) 
1.2690052337476654

>  <r_glide_ring_energy>  (1) 
0

>  <r_i_docking_score>  (1) 
-2.6497139254030442

>  <r_i_glide_ecoul>  (1) 
0.77370052483810392

>  <r_i_glide_eff_state_penalty>  (1) 
1.2690052337476654

>  <r_i_glide_einternal>  (1) 
8.4261767538491235

>  <r_i_glide_emodel>  (1) 
-6.3054840739246512

>  <r_i_glide_emodel_strain>  (1) 
3.3143085077015826

>  <r_i_glide_energy>  (1) 
-9.8779041120535158

>  <r_i_glide_erotb>  (1) 
0.33412944557780477

>  <r_i_glide_esite>  (1) 
0

>  <r_i_glide_evdw>  (1) 
-10.651604636891619

>  <r_i_glide_gscore>  (1) 
-3.9187191591507098

>  <r_i_glide_gscore_strain>  (1) 
0

>  <r_i_glide_hbond>  (1) 
0

>  <r_i_glide_ligand_efficiency>  (1) 
-0.085474642754936908

>  <r_i_glide_ligand_efficiency_ln>  (1) 
-0.59759169415797098

>  <r_i_glide_ligand_efficiency_sa>  (1) 
-0.26850838902042501

>  <r_i_glide_lipo>  (1) 
-2.402269997064193

>  <r_i_glide_metal>  (1) 
-0

>  <r_i_glide_rewards>  (1) 
-1.434053454545456

>  <r_lp_Energy>  (1) 
72.584220999999999

>  <r_lp_tautomer_probability>  (1) 
1

>  <s_epik_cmdline>  (1) 
J2VwaWtfcHl0aG9uJywgJy1waHQnLCAnMS4wJywgJy1waCcsICc3LjQnLCAnLXRuJywgJzgnLCAnLW1hJywgJzUwMCcsICctaW1hZScsICc8aW5maWxlLm1hZT4nLCAnLW9tYWUnLCAnPG91dGZpbGUubWFlPic=

>  <s_epik_input>  (1) 
W0NIM11bQ0BIXShbQ0gyXTEpW0NIMl1bQ0BIXShbQ0gyXVtDSDJdMilbQ0gyXVtDQEhdKFtDQEBdMTIzKVtDQEBdMyhbQ0gzXSlOKFtDSDJdW0NIMl1DNDVbQ0gyXVtDSDJdNSlbQ0gyXVtDSDJdW0NIMl1bQ0BIXTRPYyhbY0hdW2NIXVtjSF02KWMoW0NIM10pYzZbQ0gzXQ==

>  <s_glide_docking_method>  (1) 
confgen

>  <s_i_glide_gridfile>  (1) 
gpcr_drd2_6luq_protein_autoprepared_prepared

>  <s_lp_Force_Field>  (1) 
S-OPLS

>  <s_lp_Variant>  (1) 
DiffSBDD_89_num_sample_100-2

>  <s_m_source_file>  (1) 
generated__ligand_DiffSBDD_2026-05-06_prepared.sdf

>  <GenAI_Model>  (1) 
DiffSBDD

>  <Protein>  (1) 
generic_title2

$$$$
DiffSBDD_18_num_sample_100
     RDKit          3D

  0  0  0  0  0  0  0  0  0  0999 V3000
M  V30 BEGIN CTAB
M  V30 COUNTS 53 56 0 0 1
M  V30 BEGIN ATOM
M  V30 1 C 12.019462 3.967085 -17.091547 0
M  V30 2 O 13.824810 1.703801 -21.850666 0 CHG=-1
M  V30 3 O 5.434788 6.937065 -15.294004 0
M  V30 4 C 14.603300 1.860389 -18.581679 0
M  V30 5 C 6.976273 4.695080 -13.793490 0 CFG=2
M  V30 6 O 14.223875 3.080178 -17.782546 0
M  V30 7 C 4.991217 8.179745 -15.803752 0
M  V30 8 C 5.726752 6.577465 -11.846999 0
M  V30 9 S 7.834844 3.189172 -14.309995 0
M  V30 10 C 7.945460 4.146411 -15.837813 0 CFG=2
M  V30 11 C 7.840798 4.719841 -11.526160 0
M  V30 12 C 12.804591 1.290520 -21.256928 0
M  V30 13 S 9.549115 4.932817 -16.301240 0
M  V30 14 C 6.809120 5.052506 -15.291900 0 CFG=2
M  V30 15 C 7.124337 6.735605 -12.475651 0
M  V30 16 O 11.620553 1.507231 -21.594184 0
M  V30 17 C 10.950102 1.661646 -18.326347 0
M  V30 18 N 13.317683 1.168759 -18.761839 0
M  V30 19 C 12.331082 1.920243 -18.270574 0
M  V30 20 C 10.615549 3.756659 -17.091938 0
M  V30 21 O 5.774023 5.742632 -10.691742 0
M  V30 22 C 6.576417 6.398090 -17.398766 0
M  V30 23 C 13.026484 0.439208 -20.000657 0
M  V30 24 C 12.839400 3.004851 -17.699163 0
M  V30 25 C 10.072845 2.596086 -17.722081 0
M  V30 26 C 6.467670 4.506330 -10.845515 0
M  V30 27 N 7.745108 5.450273 -12.792941 0
M  V30 28 C 6.636032 6.449910 -15.851612 0 CFG=1
M  V30 29 H 12.447823 4.841809 -16.624846 0
M  V30 30 H 15.024404 2.143679 -19.547385 0
M  V30 31 H 15.283761 1.213979 -18.026835 0
M  V30 32 H 5.997725 4.415741 -13.408902 0
M  V30 33 H 4.234842 8.574487 -15.131155 0
M  V30 34 H 5.798835 8.908052 -15.891630 0
M  V30 35 H 4.520841 8.059933 -16.779333 0
M  V30 36 H 5.329044 7.551494 -11.561360 0
M  V30 37 H 5.034831 6.160554 -12.573209 0
M  V30 38 H 7.555540 3.572596 -16.676379 0
M  V30 39 H 8.341634 3.763489 -11.669877 0
M  V30 40 H 8.482095 5.277281 -10.841947 0
M  V30 41 H 5.861666 4.569160 -15.491800 0
M  V30 42 H 7.760995 7.278391 -11.775140 0
M  V30 43 H 7.070585 7.369925 -13.356640 0
M  V30 44 H 10.566288 0.773302 -18.804583 0
M  V30 45 H 7.496276 6.011402 -17.832568 0
M  V30 46 H 5.763728 5.754886 -17.736593 0
M  V30 47 H 6.426998 7.369484 -17.854879 0
M  V30 48 H 13.874123 -0.216784 -20.199808 0
M  V30 49 H 12.176019 -0.227983 -19.863325 0
M  V30 50 H 9.009606 2.424624 -17.736424 0
M  V30 51 H 6.610039 4.054968 -9.864311 0
M  V30 52 H 5.843904 3.807259 -11.401512 0
M  V30 53 H 7.434811 7.090375 -15.491601 0
M  V30 END ATOM
M  V30 BEGIN BOND
M  V30 1 1 6 4
M  V30 2 1 7 3
M  V30 3 1 9 5
M  V30 4 1 10 9
M  V30 5 1 12 2
M  V30 6 1 13 10
M  V30 7 1 14 5
M  V30 8 1 14 10
M  V30 9 1 15 8
M  V30 10 2 16 12
M  V30 11 1 18 4
M  V30 12 1 19 17
M  V30 13 1 19 18
M  V30 14 2 20 1
M  V30 15 1 20 13
M  V30 16 1 21 8
M  V30 17 1 23 12
M  V30 18 1 23 18
M  V30 19 1 24 1
M  V30 20 1 24 6
M  V30 21 2 24 19
M  V30 22 2 25 17
M  V30 23 1 25 20
M  V30 24 1 26 11
M  V30 25 1 26 21
M  V30 26 1 27 5
M  V30 27 1 27 11
M  V30 28 1 27 15
M  V30 29 1 28 3
M  V30 30 1 28 14
M  V30 31 1 28 22
M  V30 32 1 29 1
M  V30 33 1 30 4
M  V30 34 1 31 4
M  V30 35 1 5 32 CFG=1
M  V30 36 1 33 7
M  V30 37 1 34 7
M  V30 38 1 35 7
M  V30 39 1 36 8
M  V30 40 1 37 8
M  V30 41 1 10 38 CFG=3
M  V30 42 1 39 11
M  V30 43 1 40 11
M  V30 44 1 14 41 CFG=3
M  V30 45 1 42 15
M  V30 46 1 43 15
M  V30 47 1 44 17
M  V30 48 1 45 22
M  V30 49 1 46 22
M  V30 50 1 47 22
M  V30 51 1 48 23
M  V30 52 1 49 23
M  V30 53 1 50 25
M  V30 54 1 51 26
M  V30 55 1 52 26
M  V30 56 1 28 53 CFG=3
M  V30 END BOND
M  V30 END CTAB
M  END
>  <i_epik_Tot_Q>  (1) 
-1

>  <i_epik_Tot_abs_Q>  (1) 
1

>  <i_i_glide_confnum>  (1) 
5

>  <i_i_glide_lignum>  (1) 
30

>  <i_i_glide_posenum>  (1) 
55

>  <i_i_glide_rotatable_bonds>  (1) 
7

>  <i_lp_mmshare_version>  (1) 
72125

>  <i_m_source_file_index>  (1) 
19

>  <i_f3d_flags>  (1) 
0

>  <num_sample>  (1) 
100

>  <b_lp_Chiralities_Consistent>  (1) 
1

>  <r_epik_Charging_Adjusted_Penalty>  (1) 
0.00040573195342964225

>  <r_epik_Ionization_Penalty>  (1) 
0.00047194480807020967

>  <r_epik_Ionization_Penalty_Charging>  (1) 
0.00040573195342964225

>  <r_epik_Ionization_Penalty_Neutral>  (1) 
6.6212854640567391e-05

>  <r_epik_State_Penalty>  (1) 
-0

>  <r_glide_ring_energy>  (1) 
0

>  <r_i_docking_score>  (1) 
-2.642752342364413

>  <r_i_glide_ecoul>  (1) 
1.7707817510319845

>  <r_i_glide_eff_state_penalty>  (1) 
-0

>  <r_i_glide_einternal>  (1) 
1.9528238844031129

>  <r_i_glide_emodel>  (1) 
-27.138362795801626

>  <r_i_glide_emodel_strain>  (1) 
0.43188491849497268

>  <r_i_glide_energy>  (1) 
-24.253131601563659

>  <r_i_glide_erotb>  (1) 
0.54773737594122907

>  <r_i_glide_esite>  (1) 
0

>  <r_i_glide_evdw>  (1) 
-26.023913352595645

>  <r_i_glide_gscore>  (1) 
-2.642752342364413

>  <r_i_glide_gscore_strain>  (1) 
0

>  <r_i_glide_hbond>  (1) 
0

>  <r_i_glide_ligand_efficiency>  (1) 
-0.094384012227300459

>  <r_i_glide_ligand_efficiency_ln>  (1) 
-0.61002483519817352

>  <r_i_glide_ligand_efficiency_sa>  (1) 
-0.28660545065079834

>  <r_i_glide_lipo>  (1) 
-1.3851907639498642

>  <r_i_glide_metal>  (1) 
-0

>  <r_i_glide_rewards>  (1) 
-0.76972054938079282

>  <r_lp_Energy>  (1) 
43.419910999999999

>  <r_lp_tautomer_probability>  (1) 
1

>  <s_epik_Chemistry_Notes>  (1) 
This compound contains an acetal/aminal-like group ( X-CH(R)-Y where X, Y are N, S, or O) that may be acid/base labile, releasing an aldehyde.

>  <s_epik_cmdline>  (1) 
J2VwaWtfcHl0aG9uJywgJy1waHQnLCAnMS4wJywgJy1waCcsICc3LjQnLCAnLXRuJywgJzgnLCAnLW1hJywgJzUwMCcsICctaW1hZScsICc8aW5maWxlLm1hZT4nLCAnLW9tYWUnLCAnPG91dGZpbGUubWFlPic=

>  <s_epik_input>  (1) 
W09IXUMoPU8pW0NIMl1OMVtDSDJdT2MoYzEyKVtjSF1jKFtjSF1bY0hdMilTW0NASF0oW0NAQEhdM1tDQEBIXShbQ0gzXSlPW0NIM10pU1tDQEhdM040W0NIMl1bQ0gyXU9bQ0gyXVtDSDJdNA==

>  <s_glide_docking_method>  (1) 
confgen

>  <s_i_glide_gridfile>  (1) 
gpcr_drd2_6luq_protein_autoprepared_prepared

>  <s_lp_Force_Field>  (1) 
S-OPLS

>  <s_lp_Variant>  (1) 
DiffSBDD_18_num_sample_100-1

>  <s_m_source_file>  (1) 
generated__ligand_DiffSBDD_2026-05-06_prepared.sdf

>  <GenAI_Model>  (1) 
DiffSBDD

>  <Protein>  (1) 
generic_title2

$$$$
DiffSBDD_67_num_sample_100
     RDKit          3D

  0  0  0  0  0  0  0  0  0  0999 V3000
M  V30 BEGIN CTAB
M  V30 COUNTS 79 83 0 0 1
M  V30 BEGIN ATOM
M  V30 1 C 9.268375 7.889952 -10.354241 0 CFG=2
M  V30 2 C 9.278950 6.097131 -8.385974 0 CFG=1
M  V30 3 C 9.238144 4.584874 -8.547184 0
M  V30 4 C 9.924373 6.517236 -7.031931 0 CFG=1
M  V30 5 C 9.241721 5.182960 -13.765833 0
M  V30 6 C 7.836269 6.561650 -12.034341 0
M  V30 7 C 8.512719 6.341787 -19.469409 0
M  V30 8 C 9.165815 4.032659 -19.006918 0
M  V30 9 C 11.971148 8.030306 -7.574261 0 CFG=2
M  V30 10 C 5.727290 5.369360 -19.008499 0
M  V30 11 C 8.578588 5.767439 -15.030548 0
M  V30 12 C 9.728976 6.548867 -20.148716 0
M  V30 13 C 6.916048 5.471226 -16.742837 0
M  V30 14 O 5.163839 6.419847 -18.624967 0 CHG=-1
M  V30 15 F 11.282598 3.238760 -19.785763 0
M  V30 16 C 6.434698 4.182896 -13.878408 0
M  V30 17 O 5.420957 4.704542 -20.022713 0
M  V30 18 C 11.459904 6.660604 -7.017584 0
M  V30 19 C 10.898508 8.747054 -8.387097 0 CFG=2
M  V30 20 C 8.225637 5.079148 -18.897711 0
M  V30 21 C 9.702825 8.969333 -7.406312 0
M  V30 22 N 7.233135 4.153770 -12.620517 0 CFG=1 CHG=1
M  V30 23 C 7.244400 3.701223 -15.104733 0
M  V30 24 N 7.866160 4.793528 -15.849413 0
M  V30 25 C 9.315167 7.797085 -6.513992 0
M  V30 26 C 8.336105 5.164513 -12.507057 0 CFG=1
M  V30 27 C 8.279944 8.969285 -12.385451 0
M  V30 28 C 6.904359 4.845650 -18.156112 0 CFG=2
M  V30 29 O 13.135290 7.982885 -8.365964 0
M  V30 30 C 10.622068 8.002142 -9.705393 0 CFG=1
M  V30 31 C 9.891272 6.694376 -9.648078 0 CFG=2
M  V30 32 O 10.002023 7.765030 -20.705049 0
M  V30 33 C 10.663914 5.501439 -20.254140 0
M  V30 34 C 6.346877 4.080755 -11.431576 0
M  V30 35 C 10.382876 4.244741 -19.683386 0
M  V30 36 C 8.894175 7.688543 -11.828067 0 CFG=1
M  V30 37 H 8.634844 8.614343 -9.870672 0
M  V30 38 H 8.234772 6.396978 -8.356940 0
M  V30 39 H 10.235657 4.163680 -8.505355 0
M  V30 40 H 8.618303 4.118826 -7.788311 0
M  V30 41 H 8.831459 4.316507 -9.517591 0
M  V30 42 H 9.663253 5.768484 -6.289943 0
M  V30 43 H 9.634034 4.186657 -13.953539 0
M  V30 44 H 10.137752 5.763366 -13.555436 0
M  V30 45 H 7.063842 6.888197 -12.732107 0
M  V30 46 H 7.300885 6.462247 -11.092123 0
M  V30 47 H 7.798496 7.148616 -19.386766 0
M  V30 48 H 8.954051 3.068220 -18.569785 0
M  V30 49 H 9.261438 8.351901 -20.697101 0
M  V30 50 H 12.216261 8.667326 -6.721587 0
M  V30 51 H 9.344678 6.169300 -15.693726 0
M  V30 52 H 7.928155 6.599346 -14.764985 0
M  V30 53 H 7.167826 6.525742 -16.853929 0
M  V30 54 H 5.916680 5.457122 -16.306385 0
M  V30 55 H 5.599773 3.491211 -13.760847 0
M  V30 56 H 5.977983 5.161185 -14.035018 0
M  V30 57 H 11.822171 6.560539 -5.993483 0
M  V30 58 H 11.834804 5.782126 -7.506219 0
M  V30 59 H 11.299768 9.717298 -8.685768 0
M  V30 60 H 8.817649 9.368967 -7.895789 0
M  V30 61 H 10.020527 9.734845 -6.692659 0
M  V30 62 H 6.633433 3.129315 -15.797826 0
M  V30 63 H 8.009047 2.989035 -14.791389 0
M  V30 64 H 8.235097 7.711445 -6.430694 0
M  V30 65 H 9.678084 7.963538 -5.498745 0
M  V30 66 H 8.970957 4.774438 -11.715601 0
M  V30 67 H 7.486596 9.325529 -11.726438 0
M  V30 68 H 9.034623 9.742981 -12.489936 0
M  V30 69 H 7.835084 8.825900 -13.371770 0
M  V30 70 H 6.744888 3.770611 -18.065000 0
M  V30 71 H 13.335303 8.853918 -8.678148 0
M  V30 72 H 11.455523 8.046517 -10.403242 0
M  V30 73 H 10.234729 5.940086 -10.344537 0
M  V30 74 H 11.596563 5.660658 -20.773753 0
M  V30 75 H 5.590795 4.867459 -11.447256 0
M  V30 76 H 5.835455 3.118557 -11.416282 0
M  V30 77 H 6.895824 4.171426 -10.497279 0
M  V30 78 H 9.807893 7.486840 -12.378117 0
M  V30 79 H 7.710740 3.263777 -12.639859 0
M  V30 END ATOM
M  V30 BEGIN BOND
M  V30 1 1 3 2
M  V30 2 1 4 2
M  V30 3 1 11 5
M  V30 4 2 12 7
M  V30 5 1 14 10
M  V30 6 2 17 10
M  V30 7 1 18 4
M  V30 8 1 18 9
M  V30 9 1 19 9
M  V30 10 1 20 7
M  V30 11 2 20 8
M  V30 12 1 21 19
M  V30 13 1 22 16
M  V30 14 1 23 16
M  V30 15 1 24 11
M  V30 16 1 24 13
M  V30 17 1 24 23
M  V30 18 1 25 4
M  V30 19 1 25 21
M  V30 20 1 26 5
M  V30 21 1 26 6
M  V30 22 1 26 22
M  V30 23 1 28 10
M  V30 24 1 28 13
M  V30 25 1 28 20
M  V30 26 1 29 9
M  V30 27 1 30 1
M  V30 28 1 30 19
M  V30 29 1 31 1
M  V30 30 1 31 2
M  V30 31 1 31 30
M  V30 32 1 32 12
M  V30 33 1 33 12
M  V30 34 1 34 22
M  V30 35 1 35 8
M  V30 36 1 35 15
M  V30 37 2 35 33
M  V30 38 1 36 1
M  V30 39 1 36 6
M  V30 40 1 36 27
M  V30 41 1 1 37 CFG=1
M  V30 42 1 2 38 CFG=1
M  V30 43 1 39 3
M  V30 44 1 40 3
M  V30 45 1 41 3
M  V30 46 1 4 42 CFG=1
M  V30 47 1 43 5
M  V30 48 1 44 5
M  V30 49 1 45 6
M  V30 50 1 46 6
M  V30 51 1 47 7
M  V30 52 1 48 8
M  V30 53 1 49 32
M  V30 54 1 9 50 CFG=1
M  V30 55 1 51 11
M  V30 56 1 52 11
M  V30 57 1 53 13
M  V30 58 1 54 13
M  V30 59 1 55 16
M  V30 60 1 56 16
M  V30 61 1 57 18
M  V30 62 1 58 18
M  V30 63 1 19 59 CFG=3
M  V30 64 1 60 21
M  V30 65 1 61 21
M  V30 66 1 62 23
M  V30 67 1 63 23
M  V30 68 1 64 25
M  V30 69 1 65 25
M  V30 70 1 26 66 CFG=1
M  V30 71 1 67 27
M  V30 72 1 68 27
M  V30 73 1 69 27
M  V30 74 1 28 70 CFG=1
M  V30 75 1 71 29
M  V30 76 1 30 72 CFG=3
M  V30 77 1 31 73 CFG=3
M  V30 78 1 74 33
M  V30 79 1 75 34
M  V30 80 1 76 34
M  V30 81 1 77 34
M  V30 82 1 36 78 CFG=3
M  V30 83 1 22 79 CFG=3
M  V30 END BOND
M  V30 END CTAB
M  END
>  <i_epik_Tot_Q>  (1) 
0

>  <i_epik_Tot_abs_Q>  (1) 
2

>  <i_i_glide_confnum>  (1) 
553

>  <i_i_glide_lignum>  (1) 
135

>  <i_i_glide_posenum>  (1) 
82

>  <i_i_glide_rotatable_bonds>  (1) 
9

>  <i_lp_mmshare_version>  (1) 
72125

>  <i_m_source_file_index>  (1) 
68

>  <i_f3d_flags>  (1) 
0

>  <num_sample>  (1) 
100

>  <b_lp_Chiralities_Consistent>  (1) 
1

>  <r_epik_Charging_Adjusted_Penalty>  (1) 
1.0015811376701689

>  <r_epik_Ionization_Penalty>  (1) 
0.014205467742633596

>  <r_epik_Ionization_Penalty_Charging>  (1) 
0.0035901324651834211

>  <r_epik_Ionization_Penalty_Neutral>  (1) 
0.010615335277450176

>  <r_epik_State_Penalty>  (1) 
0.99799100520498552

>  <r_glide_ring_energy>  (1) 
2.3391533560646365

>  <r_i_docking_score>  (1) 
-2.6322007462119372

>  <r_i_glide_ecoul>  (1) 
-3.026480422100343

>  <r_i_glide_eff_state_penalty>  (1) 
0.99799100520498552

>  <r_i_glide_einternal>  (1) 
12.107658731795954

>  <r_i_glide_emodel>  (1) 
-21.220542793667647

>  <r_i_glide_emodel_strain>  (1) 
1.7243941631673039

>  <r_i_glide_energy>  (1) 
-22.985883483340302

>  <r_i_glide_erotb>  (1) 
0.48522832276191719

>  <r_i_glide_esite>  (1) 
0

>  <r_i_glide_evdw>  (1) 
-19.959403061239961

>  <r_i_glide_gscore>  (1) 
-3.6301917514169229

>  <r_i_glide_gscore_strain>  (1) 
0

>  <r_i_glide_hbond>  (1) 
0

>  <r_i_glide_ligand_efficiency>  (1) 
-0.073116687394776031

>  <r_i_glide_ligand_efficiency_ln>  (1) 
-0.57427508897749968

>  <r_i_glide_ligand_efficiency_sa>  (1) 
-0.24142598245772132

>  <r_i_glide_lipo>  (1) 
-1.648794895072988

>  <r_i_glide_metal>  (1) 
-0

>  <r_i_glide_rewards>  (1) 
-1.0146829627288025

>  <r_lp_Energy>  (1) 
48.201639999999998

>  <s_epik_cmdline>  (1) 
J2VwaWtfcHl0aG9uJywgJy1waHQnLCAnMS4wJywgJy1waCcsICc3LjQnLCAnLXRuJywgJzgnLCAnLW1hJywgJzUwMCcsICctaW1hZScsICc8aW5maWxlLm1hZT4nLCAnLW9tYWUnLCAnPG91dGZpbGUubWFlPic=

>  <s_epik_input>  (1) 
W0NIM11bQ0BASF0oW0NAQEhdMTIpW0NAQEhdM1tDQEhdKFtDQEhdKFtDQEBIXShbQ0gyXTEpW09IXSlbQ0gyXVtDSDJdMilbQ0BIXTNbQ0BIXShbQ0gzXSlbQ0gyXVtDQEBIXTRbQ0gyXVtDSDJdTihbQ0gyXVtDSDJdTjRbQ0gzXSlbQ0gyXVtDQEBIXShDKD1PKVtPSF0pQyg9W0NIXUM1PU8pW0NIMl1DKEYpPVtDSF01

>  <s_glide_docking_method>  (1) 
confgen

>  <s_i_glide_gridfile>  (1) 
gpcr_drd2_6luq_protein_autoprepared_prepared

>  <s_lp_Force_Field>  (1) 
S-OPLS

>  <s_lp_Variant>  (1) 
DiffSBDD_67_num_sample_100-3

>  <s_m_source_file>  (1) 
generated__ligand_DiffSBDD_2026-05-06_prepared.sdf

>  <GenAI_Model>  (1) 
DiffSBDD

>  <Protein>  (1) 
generic_title2

$$$$
DiffSBDD_28_num_sample_100
     RDKit          3D

  0  0  0  0  0  0  0  0  0  0999 V3000
M  V30 BEGIN CTAB
M  V30 COUNTS 42 43 0 0 1
M  V30 BEGIN ATOM
M  V30 1 C 11.831062 8.336485 -7.271278 0
M  V30 2 C 7.219767 2.844208 -14.699148 0
M  V30 3 C 10.945277 8.315909 -8.523838 0
M  V30 4 N 8.983078 5.527126 -10.391450 0
M  V30 5 C 10.858257 6.169305 -6.482419 0
M  V30 6 C 8.349960 5.425912 -11.519352 0
M  V30 7 C 10.234836 6.017523 -7.862877 0
M  V30 8 O 7.686485 6.347104 -13.617509 0
M  V30 9 C 8.529604 3.156932 -12.616192 0
M  V30 10 C 6.931177 1.245091 -12.817781 0
M  V30 11 C 7.600363 4.161835 -11.889353 0
M  V30 12 C 7.134673 1.897457 -15.905777 0
M  V30 13 C 9.540303 7.747441 -11.079261 0
M  V30 14 N 8.969940 7.729549 -12.291666 0 CHG=-1
M  V30 15 N 7.834832 2.192542 -13.513663 0 CFG=1 CHG=1
M  V30 16 C 11.141103 7.628196 -6.110878 0
M  V30 17 C 8.310077 6.569326 -12.578108 0
M  V30 18 C 9.604156 6.766296 -10.109414 0
M  V30 19 C 10.256424 6.980872 -8.808602 0
M  V30 20 H 12.774765 7.838522 -7.491686 0
M  V30 21 H 12.075854 9.364295 -7.002308 0
M  V30 22 H 6.234833 3.236234 -14.445565 0
M  V30 23 H 7.821501 3.704977 -14.995859 0
M  V30 24 H 11.556789 8.625755 -9.371238 0
M  V30 25 H 10.136719 9.033424 -8.414432 0
M  V30 26 H 10.172635 5.769301 -5.739361 0
M  V30 27 H 11.773206 5.576910 -6.445048 0
M  V30 28 H 9.745684 5.076557 -8.064671 0
M  V30 29 H 9.258379 3.702345 -13.219003 0
M  V30 30 H 9.124880 2.603697 -11.891668 0
M  V30 31 H 6.136276 1.771861 -12.291553 0
M  V30 32 H 6.463442 0.552744 -13.517377 0
M  V30 33 H 7.483251 0.631352 -12.106340 0
M  V30 34 H 7.169049 3.769301 -10.973747 0
M  V30 35 H 6.734257 4.414794 -12.499110 0
M  V30 36 H 6.763176 2.427837 -16.782910 0
M  V30 37 H 8.114048 1.492038 -16.161917 0
M  V30 38 H 6.459237 1.060856 -15.727963 0
M  V30 39 H 10.018325 8.705712 -10.825357 0
M  V30 40 H 11.747976 7.676939 -5.206552 0
M  V30 41 H 10.202748 8.136958 -5.883817 0
M  V30 42 H 8.579832 1.620951 -13.885911 0
M  V30 END ATOM
M  V30 BEGIN BOND
M  V30 1 1 3 1
M  V30 2 2 6 4
M  V30 3 1 7 5
M  V30 4 1 11 6
M  V30 5 1 11 9
M  V30 6 1 12 2
M  V30 7 1 14 13
M  V30 8 1 15 2
M  V30 9 1 15 9
M  V30 10 1 15 10
M  V30 11 1 16 1
M  V30 12 1 16 5
M  V30 13 1 17 6
M  V30 14 2 17 8
M  V30 15 1 17 14
M  V30 16 1 18 4
M  V30 17 2 18 13
M  V30 18 1 19 3
M  V30 19 2 19 7
M  V30 20 1 19 18
M  V30 21 1 20 1
M  V30 22 1 21 1
M  V30 23 1 22 2
M  V30 24 1 23 2
M  V30 25 1 24 3
M  V30 26 1 25 3
M  V30 27 1 26 5
M  V30 28 1 27 5
M  V30 29 1 28 7
M  V30 30 1 29 9
M  V30 31 1 30 9
M  V30 32 1 31 10
M  V30 33 1 32 10
M  V30 34 1 33 10
M  V30 35 1 34 11
M  V30 36 1 35 11
M  V30 37 1 36 12
M  V30 38 1 37 12
M  V30 39 1 38 12
M  V30 40 1 39 13
M  V30 41 1 40 16
M  V30 42 1 41 16
M  V30 43 1 15 42 CFG=3
M  V30 END BOND
M  V30 END CTAB
M  END
>  <i_epik_Tot_Q>  (1) 
0

>  <i_epik_Tot_abs_Q>  (1) 
2

>  <i_i_glide_confnum>  (1) 
54

>  <i_i_glide_lignum>  (1) 
49

>  <i_i_glide_posenum>  (1) 
255

>  <i_i_glide_rotatable_bonds>  (1) 
5

>  <i_lp_mmshare_version>  (1) 
72125

>  <i_m_source_file_index>  (1) 
29

>  <i_f3d_flags>  (1) 
0

>  <num_sample>  (1) 
100

>  <b_lp_Chiralities_Consistent>  (1) 
1

>  <r_epik_Charging_Adjusted_Penalty>  (1) 
1.2889852773217638

>  <r_epik_Ionization_Penalty>  (1) 
1.2889869126975093

>  <r_epik_Ionization_Penalty_Charging>  (1) 
0.026956894772998535

>  <r_epik_Ionization_Penalty_Neutral>  (1) 
1.2620300179245107

>  <r_epik_State_Penalty>  (1) 
1.2620283825487653

>  <r_glide_ring_energy>  (1) 
0.00030344837723431068

>  <r_i_docking_score>  (1) 
-2.6171195051776897

>  <r_i_glide_ecoul>  (1) 
-0.18786775703098568

>  <r_i_glide_eff_state_penalty>  (1) 
1.2620283825487653

>  <r_i_glide_einternal>  (1) 
5.083618268186016

>  <r_i_glide_emodel>  (1) 
-29.787876433848702

>  <r_i_glide_emodel_strain>  (1) 
0.59261324457841624

>  <r_i_glide_energy>  (1) 
-24.560935939067633

>  <r_i_glide_erotb>  (1) 
1.0375715866235848

>  <r_i_glide_esite>  (1) 
0

>  <r_i_glide_evdw>  (1) 
-24.373068182036647

>  <r_i_glide_gscore>  (1) 
-3.8791478877264551

>  <r_i_glide_gscore_strain>  (1) 
0

>  <r_i_glide_hbond>  (1) 
0

>  <r_i_glide_ligand_efficiency>  (1) 
-0.13774313185145734

>  <r_i_glide_ligand_efficiency_ln>  (1) 
-0.66349600513550178

>  <r_i_glide_ligand_efficiency_sa>  (1) 
-0.36755400013255307

>  <r_i_glide_lipo>  (1) 
-1.392084703060086

>  <r_i_glide_metal>  (1) 
-0

>  <r_i_glide_rewards>  (1) 
-2.2778011986334734

>  <r_lp_Energy>  (1) 
33.608792999999999

>  <s_epik_cmdline>  (1) 
J2VwaWtfcHl0aG9uJywgJy1waHQnLCAnMS4wJywgJy1waCcsICc3LjQnLCAnLXRuJywgJzgnLCAnLW1hJywgJzUwMCcsICctaW1hZScsICc8aW5maWxlLm1hZT4nLCAnLW9tYWUnLCAnPG91dGZpbGUubWFlPic=

>  <s_epik_input>  (1) 
W0NIMl0xW0NIMl1bQ0gyXVtDSDJdW0NIXT1DMWMoW2NIXVtuSF1jMj1PKW5jMltDSDJdW0NIMl1OKFtDSDNdKVtDSDJdW0NIM10=

>  <s_glide_docking_method>  (1) 
confgen

>  <s_i_glide_gridfile>  (1) 
gpcr_drd2_6luq_protein_autoprepared_prepared

>  <s_lp_Force_Field>  (1) 
S-OPLS

>  <s_lp_Variant>  (1) 
DiffSBDD_28_num_sample_100-3

>  <s_m_source_file>  (1) 
generated__ligand_DiffSBDD_2026-05-06_prepared.sdf

>  <GenAI_Model>  (1) 
DiffSBDD

>  <Protein>  (1) 
generic_title2

$$$$
DiffSBDD_92_num_sample_100
     RDKit          3D

  0  0  0  0  0  0  0  0  0  0999 V3000
M  V30 BEGIN CTAB
M  V30 COUNTS 66 68 0 0 1
M  V30 BEGIN ATOM
M  V30 1 F 4.634847 6.792141 -20.450283 0
M  V30 2 C 7.435044 3.306879 -20.100330 0 CFG=1
M  V30 3 C 6.695658 -3.430709 -21.168125 0
M  V30 4 C 6.733910 9.151414 -22.358937 0
M  V30 5 S 9.271495 0.781912 -19.615248 0
M  V30 6 F 6.303231 -0.685873 -21.078664 0
M  V30 7 C 5.034858 7.908747 -21.102939 0
M  V30 8 C 8.962543 -1.430632 -17.091664 0
M  V30 9 C 7.276935 6.766961 -21.561390 0 CFG=2
M  V30 10 C 5.549918 -3.645545 -18.978180 0
M  V30 11 S 7.650120 2.917351 -21.879707 0
M  V30 12 C 7.652285 -1.443314 -17.914955 0 CFG=1
M  V30 13 C 7.689057 1.009256 -19.080934 0
M  V30 14 N 6.939641 2.133771 -19.337421 0
M  V30 15 C 6.630814 0.605398 -16.841529 0
M  V30 16 C 4.159403 9.005915 -21.212151 0
M  V30 17 C 5.551991 -0.484377 -18.854677 0 CFG=1
M  V30 18 C 7.762553 4.504830 -22.762491 0
M  V30 19 C 5.848595 10.243663 -22.461649 0
M  V30 20 C 8.852651 5.542672 -19.886944 0
M  V30 21 C 6.327599 7.971738 -21.675651 0
M  V30 22 C 5.672791 -1.366596 -20.119753 0 CFG=2
M  V30 23 C 6.928099 -0.061557 -18.213645 0 CFG=2
M  V30 24 C 4.564260 10.169036 -21.891684 0
M  V30 25 O 7.978288 9.235967 -22.920915 0
M  V30 26 F 6.234849 11.369409 -23.107942 0
M  V30 27 C 6.714679 5.558019 -22.351426 0
M  V30 28 C 6.418574 -2.696620 -19.839163 0
M  V30 29 C 8.553876 4.117404 -19.383213 0
M  V30 30 C 7.629758 6.461564 -20.083894 0
M  V30 31 O 4.634839 0.569299 -19.091689 0
M  V30 32 C 7.765168 -2.395983 -19.136518 0
M  V30 33 H 6.555958 3.947168 -20.083581 0
M  V30 34 H 5.770970 -3.642748 -21.705967 0
M  V30 35 H 7.331792 -2.843708 -21.831504 0
M  V30 36 H 7.201342 -4.381584 -20.997194 0
M  V30 37 H 9.850246 -1.181286 -17.666996 0
M  V30 38 H 8.910229 -0.762222 -16.235078 0
M  V30 39 H 9.138848 -2.427982 -16.691497 0
M  V30 40 H 8.215466 7.036609 -22.041932 0
M  V30 41 H 4.598640 -3.860689 -19.465963 0
M  V30 42 H 6.051298 -4.600250 -18.817273 0
M  V30 43 H 5.317140 -3.248247 -17.991849 0
M  V30 44 H 6.979416 -1.959950 -17.230372 0
M  V30 45 H 5.989567 2.160068 -18.988423 0
M  V30 46 H 6.210466 -0.104437 -16.128037 0
M  V30 47 H 7.528776 1.026852 -16.388345 0
M  V30 48 H 5.909401 1.417813 -16.926267 0
M  V30 49 H 3.173543 8.954308 -20.773704 0
M  V30 50 H 5.021234 -1.070277 -18.104867 0
M  V30 51 H 7.614351 4.260714 -23.814233 0
M  V30 52 H 8.777692 4.892689 -22.713288 0
M  V30 53 H 9.499204 6.006754 -19.140728 0
M  V30 54 H 9.473558 5.511305 -20.779249 0
M  V30 55 H 4.682842 -1.583362 -20.523530 0
M  V30 56 H 3.889092 11.007797 -21.973418 0
M  V30 57 H 8.124480 10.037624 -23.408714 0
M  V30 58 H 5.859907 5.103353 -21.851998 0
M  V30 59 H 6.308499 5.952152 -23.284329 0
M  V30 60 H 8.278020 4.195241 -18.330669 0
M  V30 61 H 9.500651 3.583993 -19.392453 0
M  V30 62 H 7.879979 7.411465 -19.612433 0
M  V30 63 H 6.770013 6.094452 -19.524826 0
M  V30 64 H 3.809881 0.196156 -19.368483 0
M  V30 65 H 8.464999 -1.988993 -19.863817 0
M  V30 66 H 8.213677 -3.337505 -18.816046 0
M  V30 END ATOM
M  V30 BEGIN BOND
M  V30 1 1 7 1
M  V30 2 1 11 2
M  V30 3 1 12 8
M  V30 4 2 13 5
M  V30 5 1 14 2
M  V30 6 1 14 13
M  V30 7 1 16 7
M  V30 8 1 18 11
M  V30 9 2 19 4
M  V30 10 1 21 4
M  V30 11 2 21 7
M  V30 12 1 21 9
M  V30 13 1 22 6
M  V30 14 1 22 17
M  V30 15 1 23 12
M  V30 16 1 23 13
M  V30 17 1 23 15 CFG=1
M  V30 18 1 23 17
M  V30 19 2 24 16
M  V30 20 1 24 19
M  V30 21 1 25 4
M  V30 22 1 26 19
M  V30 23 1 27 9
M  V30 24 1 27 18
M  V30 25 1 28 3
M  V30 26 1 28 10
M  V30 27 1 28 22
M  V30 28 1 29 2
M  V30 29 1 29 20
M  V30 30 1 30 9
M  V30 31 1 30 20
M  V30 32 1 31 17
M  V30 33 1 32 12
M  V30 34 1 32 28
M  V30 35 1 2 33 CFG=3
M  V30 36 1 34 3
M  V30 37 1 35 3
M  V30 38 1 36 3
M  V30 39 1 37 8
M  V30 40 1 38 8
M  V30 41 1 39 8
M  V30 42 1 9 40 CFG=3
M  V30 43 1 41 10
M  V30 44 1 42 10
M  V30 45 1 43 10
M  V30 46 1 12 44 CFG=1
M  V30 47 1 45 14
M  V30 48 1 46 15
M  V30 49 1 47 15
M  V30 50 1 48 15
M  V30 51 1 49 16
M  V30 52 1 17 50 CFG=1
M  V30 53 1 51 18
M  V30 54 1 52 18
M  V30 55 1 53 20
M  V30 56 1 54 20
M  V30 57 1 22 55 CFG=3
M  V30 58 1 56 24
M  V30 59 1 57 25
M  V30 60 1 58 27
M  V30 61 1 59 27
M  V30 62 1 60 29
M  V30 63 1 61 29
M  V30 64 1 62 30
M  V30 65 1 63 30
M  V30 66 1 64 31
M  V30 67 1 65 32
M  V30 68 1 66 32
M  V30 END BOND
M  V30 END CTAB
M  END
>  <i_epik_Tot_Q>  (1) 
0

>  <i_epik_Tot_abs_Q>  (1) 
0

>  <i_i_glide_confnum>  (1) 
363

>  <i_i_glide_lignum>  (1) 
186

>  <i_i_glide_posenum>  (1) 
147

>  <i_i_glide_rotatable_bonds>  (1) 
6

>  <i_lp_mmshare_version>  (1) 
72125

>  <i_m_source_file_index>  (1) 
93

>  <i_f3d_flags>  (1) 
0

>  <num_sample>  (1) 
100

>  <b_lp_Chiralities_Consistent>  (1) 
1

>  <r_epik_Charging_Adjusted_Penalty>  (1) 
0.13644680827592012

>  <r_epik_Ionization_Penalty>  (1) 
0.1364473086823538

>  <r_epik_Ionization_Penalty_Charging>  (1) 
0

>  <r_epik_Ionization_Penalty_Neutral>  (1) 
0.1364473086823538

>  <r_epik_State_Penalty>  (1) 
0.13644680827592012

>  <r_glide_ring_energy>  (1) 
2.2024039784510827

>  <r_i_docking_score>  (1) 
-2.6166191155878642

>  <r_i_glide_ecoul>  (1) 
-2.741972044738251

>  <r_i_glide_eff_state_penalty>  (1) 
0.13644680827592012

>  <r_i_glide_einternal>  (1) 
4.4162693956280172

>  <r_i_glide_emodel>  (1) 
-35.189959601849722

>  <r_i_glide_emodel_strain>  (1) 
0

>  <r_i_glide_energy>  (1) 
-32.340656444113755

>  <r_i_glide_erotb>  (1) 
0.33940478494589921

>  <r_i_glide_esite>  (1) 
-0.086704098545478558

>  <r_i_glide_evdw>  (1) 
-29.598684399375504

>  <r_i_glide_gscore>  (1) 
-2.7530659238637845

>  <r_i_glide_gscore_strain>  (1) 
0

>  <r_i_glide_hbond>  (1) 
0

>  <r_i_glide_ligand_efficiency>  (1) 
-0.081769347362120756

>  <r_i_glide_ligand_efficiency_ln>  (1) 
-0.58593234632334923

>  <r_i_glide_ligand_efficiency_sa>  (1) 
-0.25960149604276728

>  <r_i_glide_lipo>  (1) 
-0.96787370586503418

>  <r_i_glide_metal>  (1) 
-0

>  <r_i_glide_rewards>  (1) 
-0.14666287771965791

>  <r_lp_Energy>  (1) 
81.464282999999995

>  <r_lp_tautomer_probability>  (1) 
0.99999999999736477

>  <s_epik_Chemistry_Notes>  (1) 
This compound contains an acetal/aminal-like group ( X-CH(R)-Y where X, Y are N, S, or O) that may be acid/base labile, releasing an aldehyde.

>  <s_epik_cmdline>  (1) 
J2VwaWtfcHl0aG9uJywgJy1waHQnLCAnMS4wJywgJy1waCcsICc3LjQnLCAnLXRuJywgJzgnLCAnLW1hJywgJzUwMCcsICctaW1hZScsICc8aW5maWxlLm1hZT4nLCAnLW9tYWUnLCAnPG91dGZpbGUubWFlPic=

>  <s_epik_input>  (1) 
W09IXWMxYyhGKVtjSF1bY0hdYyhGKWMxW0NAQEhdKFtDSDJdW0NIMl1bQ0gyXTIpW0NIMl1bQ0gyXVNbQ0BIXTJbTkhdQyg9UylbQ0BdMyhbQ0gzXSlbQ0BIXShbQ0gzXSlbQ0gyXUMoW0NIM10pKFtDSDNdKVtDQEhdKEYpW0NAQEhdM1tPSF0=

>  <s_glide_docking_method>  (1) 
confgen

>  <s_i_glide_gridfile>  (1) 
gpcr_drd2_6luq_protein_autoprepared_prepared

>  <s_lp_Force_Field>  (1) 
S-OPLS

>  <s_lp_Variant>  (1) 
DiffSBDD_92_num_sample_100-1

>  <s_m_source_file>  (1) 
generated__ligand_DiffSBDD_2026-05-06_prepared.sdf

>  <GenAI_Model>  (1) 
DiffSBDD

>  <Protein>  (1) 
generic_title2

$$$$
DiffSBDD_55_num_sample_100
     RDKit          3D

  0  0  0  0  0  0  0  0  0  0999 V3000
M  V30 BEGIN CTAB
M  V30 COUNTS 50 53 0 0 1
M  V30 BEGIN ATOM
M  V30 1 O 14.316254 1.540642 -19.716318 0
M  V30 2 C 15.073750 9.769301 -20.155984 0
M  V30 3 C 15.105890 3.872762 -16.174626 0
M  V30 4 C 17.638290 5.527198 -16.291668 0
M  V30 5 C 13.253959 4.099611 -18.284724 0 CFG=2
M  V30 6 C 13.515985 2.704860 -17.715898 0 CFG=1
M  V30 7 S 17.694946 9.088960 -20.332813 0
M  V30 8 C 16.030249 8.966362 -21.044374 0
M  V30 9 C 15.668424 9.769301 -18.758178 0
M  V30 10 C 14.234839 -0.583735 -18.824253 0
M  V30 11 N 15.206080 5.133789 -16.909670 0
M  V30 12 C 13.243390 1.610293 -18.777454 0 CFG=2
M  V30 13 C 14.923669 2.649429 -17.079969 0 CFG=2
M  V30 14 C 13.065841 0.181607 -18.232752 0
M  V30 15 C 14.507126 0.189340 -20.105249 0
M  V30 16 C 17.154483 7.960023 -17.837120 0
M  V30 17 C 16.551486 5.517996 -17.391837 0 CFG=1
M  V30 18 C 17.098044 9.255135 -18.630979 0 CFG=1
M  V30 19 C 14.195621 4.738771 -19.272022 0
M  V30 20 O 15.034839 10.169301 -17.785151 0
M  V30 21 O 15.111205 1.494366 -16.291935 0
M  V30 22 C 16.500769 6.830828 -18.181098 0
M  V30 23 C 14.095116 5.304522 -17.864734 0 CFG=1
M  V30 24 H 15.034839 10.803061 -20.494664 0
M  V30 25 H 14.061938 9.363745 -20.161820 0
M  V30 26 H 14.250292 3.936023 -15.500412 0
M  V30 27 H 15.956737 3.728263 -15.515382 0
M  V30 28 H 18.595926 5.875453 -16.680388 0
M  V30 29 H 17.354231 6.169301 -15.458657 0
M  V30 30 H 17.834838 4.535713 -15.889780 0
M  V30 31 H 12.198820 4.296153 -18.465562 0
M  V30 32 H 12.783413 2.577080 -16.917280 0
M  V30 33 H 16.030455 9.335923 -22.069989 0
M  V30 34 H 15.729022 7.919363 -21.075943 0
M  V30 35 H 14.022727 -1.638040 -19.000307 0
M  V30 36 H 15.100469 -0.522149 -18.164116 0
M  V30 37 H 12.336322 1.868127 -19.326531 0
M  V30 38 H 15.691090 2.645308 -17.853294 0
M  V30 39 H 13.034929 0.122941 -17.144909 0
M  V30 40 H 12.126530 -0.230698 -18.602024 0
M  V30 41 H 13.784561 -0.073442 -20.879328 0
M  V30 42 H 15.510882 0.019962 -20.495579 0
M  V30 43 H 17.764088 7.977519 -16.947494 0
M  V30 44 H 16.868527 4.775752 -18.124755 0
M  V30 45 H 17.704212 10.001643 -18.117165 0
M  V30 46 H 13.751890 5.322917 -20.075389 0
M  V30 47 H 15.090073 4.186371 -19.550781 0
M  V30 48 H 14.436939 1.466523 -15.626651 0
M  V30 49 H 15.894935 6.826604 -19.072852 0
M  V30 50 H 13.607118 6.270602 -17.747455 0
M  V30 END ATOM
M  V30 BEGIN BOND
M  V30 1 1 6 5
M  V30 2 1 8 2
M  V30 3 1 8 7
M  V30 4 1 9 2
M  V30 5 1 11 3
M  V30 6 1 12 1
M  V30 7 1 12 6
M  V30 8 1 13 3
M  V30 9 1 13 6
M  V30 10 1 14 10
M  V30 11 1 14 12
M  V30 12 1 15 1
M  V30 13 1 15 10
M  V30 14 1 17 4
M  V30 15 1 17 11
M  V30 16 1 18 7
M  V30 17 1 18 9
M  V30 18 1 18 16
M  V30 19 1 19 5
M  V30 20 2 20 9
M  V30 21 1 21 13
M  V30 22 2 22 16
M  V30 23 1 22 17
M  V30 24 1 23 5
M  V30 25 1 23 11
M  V30 26 1 23 19
M  V30 27 1 24 2
M  V30 28 1 25 2
M  V30 29 1 26 3
M  V30 30 1 27 3
M  V30 31 1 28 4
M  V30 32 1 29 4
M  V30 33 1 30 4
M  V30 34 1 5 31 CFG=3
M  V30 35 1 6 32 CFG=1
M  V30 36 1 33 8
M  V30 37 1 34 8
M  V30 38 1 35 10
M  V30 39 1 36 10
M  V30 40 1 12 37 CFG=3
M  V30 41 1 13 38 CFG=3
M  V30 42 1 39 14
M  V30 43 1 40 14
M  V30 44 1 41 15
M  V30 45 1 42 15
M  V30 46 1 43 16
M  V30 47 1 17 44 CFG=3
M  V30 48 1 18 45 CFG=1
M  V30 49 1 46 19
M  V30 50 1 47 19
M  V30 51 1 48 21
M  V30 52 1 49 22
M  V30 53 1 23 50 CFG=3
M  V30 END BOND
M  V30 END CTAB
M  END
>  <i_epik_Tot_Q>  (1) 
0

>  <i_epik_Tot_abs_Q>  (1) 
0

>  <i_i_glide_confnum>  (1) 
149

>  <i_i_glide_lignum>  (1) 
108

>  <i_i_glide_posenum>  (1) 
398

>  <i_i_glide_rotatable_bonds>  (1) 
5

>  <i_lp_mmshare_version>  (1) 
72125

>  <i_m_source_file_index>  (1) 
56

>  <i_f3d_flags>  (1) 
0

>  <num_sample>  (1) 
100

>  <b_lp_Chiralities_Consistent>  (1) 
1

>  <r_epik_Charging_Adjusted_Penalty>  (1) 
1.1351003249830234

>  <r_epik_Ionization_Penalty>  (1) 
1.13510036387319

>  <r_epik_Ionization_Penalty_Charging>  (1) 
0

>  <r_epik_Ionization_Penalty_Neutral>  (1) 
1.13510036387319

>  <r_epik_State_Penalty>  (1) 
1.1351003249830234

>  <r_glide_ring_energy>  (1) 
1.5487483858725037

>  <r_i_docking_score>  (1) 
-2.5958466927820094

>  <r_i_glide_ecoul>  (1) 
-1.4284418809358286

>  <r_i_glide_eff_state_penalty>  (1) 
1.1351003249830234

>  <r_i_glide_einternal>  (1) 
4.8288312935573483

>  <r_i_glide_emodel>  (1) 
-32.579133008169791

>  <r_i_glide_emodel_strain>  (1) 
0

>  <r_i_glide_energy>  (1) 
-29.297470500917413

>  <r_i_glide_erotb>  (1) 
0.4978175189556282

>  <r_i_glide_esite>  (1) 
0

>  <r_i_glide_evdw>  (1) 
-27.869028619981584

>  <r_i_glide_gscore>  (1) 
-3.7309470177650326

>  <r_i_glide_gscore_strain>  (1) 
0

>  <r_i_glide_hbond>  (1) 
0

>  <r_i_glide_ligand_efficiency>  (1) 
-0.11286289968617433

>  <r_i_glide_ligand_efficiency_ln>  (1) 
-0.6276992681511423

>  <r_i_glide_ligand_efficiency_sa>  (1) 
-0.3209670736678108

>  <r_i_glide_lipo>  (1) 
-1.2479947315452036

>  <r_i_glide_metal>  (1) 
-0

>  <r_i_glide_rewards>  (1) 
-1.3730520920360034

>  <r_lp_Energy>  (1) 
15.605067999999999

>  <r_lp_tautomer_probability>  (1) 
0.99995000000000001

>  <s_epik_cmdline>  (1) 
J2VwaWtfcHl0aG9uJywgJy1waHQnLCAnMS4wJywgJy1waCcsICc3LjQnLCAnLXRuJywgJzgnLCAnLW1hJywgJzUwMCcsICctaW1hZScsICc8aW5maWxlLm1hZT4nLCAnLW9tYWUnLCAnPG91dGZpbGUubWFlPic=

>  <s_epik_input>  (1) 
W0NIMl0xW0NIMl1bQ0gyXU9bQ0BASF0xW0NASF0yW0NASF0oW09IXSlbQ0gyXU4oW0NASF0oW0NASF0yMylbQ0gyXTMpW0NASF0oW0NIM10pXFtDSF09W0NIXVxbQ0BIXTRTW0NIMl1bQ0gyXUM0PU8=

>  <s_glide_docking_method>  (1) 
confgen

>  <s_i_glide_gridfile>  (1) 
gpcr_drd2_6luq_protein_autoprepared_prepared

>  <s_lp_Force_Field>  (1) 
S-OPLS

>  <s_lp_Variant>  (1) 
DiffSBDD_55_num_sample_100-9

>  <s_m_source_file>  (1) 
generated__ligand_DiffSBDD_2026-05-06_prepared.sdf

>  <GenAI_Model>  (1) 
DiffSBDD

>  <Protein>  (1) 
generic_title2

$$$$
DiffSBDD_85_num_sample_100
     RDKit          3D

  0  0  0  0  0  0  0  0  0  0999 V3000
M  V30 BEGIN CTAB
M  V30 COUNTS 86 88 0 0 1
M  V30 BEGIN ATOM
M  V30 1 O 10.637033 9.769310 -5.091681 0
M  V30 2 C 12.141107 7.574715 -8.229310 0
M  V30 3 C 5.584260 5.290846 -18.792965 0
M  V30 4 C 7.479332 6.622616 -21.543164 0
M  V30 5 C 10.732913 5.559024 -7.491940 0
M  V30 6 C 6.463386 5.892100 -13.609567 0 CFG=1
M  V30 7 C 7.080257 4.259181 -20.616236 0 CFG=2
M  V30 8 C 8.770362 4.488282 -20.941373 0
M  V30 9 C 7.525829 6.109727 -14.728942 0 CFG=2
M  V30 10 C 6.166637 6.675487 -18.430815 0 CFG=2
M  V30 11 C 8.120891 7.029192 -11.961723 0 CFG=2
M  V30 12 C 9.834863 7.027597 -10.057876 0
M  V30 13 C 6.228891 6.854191 -16.884827 0
M  V30 14 C 5.333763 7.793802 -19.096090 0
M  V30 15 C 8.113141 8.569098 -11.932268 0
M  V30 16 C 6.107489 4.415217 -13.363492 0
M  V30 17 C 6.039396 7.155345 -21.560277 0 CFG=1
M  V30 18 O 9.028902 5.002933 -11.061567 0
M  V30 19 C 7.728164 5.372573 -21.112096 0
M  V30 20 O 9.700004 7.237140 -8.700761 0
M  V30 21 C 8.603642 7.443205 -22.010259 0
M  V30 22 C 6.618067 4.213535 -19.169185 0
M  V30 23 C 5.751546 8.280814 -20.514129 0 CFG=1
M  V30 24 C 7.111108 5.797557 -16.183747 0
M  V30 25 C 10.483467 7.707570 -6.370565 0
M  V30 26 C 8.476416 8.711403 -22.448615 0
M  V30 27 C 10.610125 9.225957 -6.389366 0 CFG=2
M  V30 28 C 10.767863 7.055322 -7.752921 0 CFG=2
M  V30 29 C 11.893657 9.731276 -7.028435 0
M  V30 30 C 4.673811 9.266320 -21.019158 0
M  V30 31 O 8.635134 5.261603 -14.489061 0
M  V30 32 C 12.126430 9.082103 -8.393532 0
M  V30 33 O 10.801839 7.369254 -10.740783 0
M  V30 34 N 6.749299 6.560795 -12.299030 0 CHG=1
M  V30 35 C 8.633162 6.311564 -10.680924 0 CFG=2
M  V30 36 O 5.705609 7.527194 -22.885938 0
M  V30 37 H 9.834731 9.539133 -4.657890 0
M  V30 38 H 12.467462 7.131954 -9.163158 0
M  V30 39 H 12.900326 7.324042 -7.491841 0
M  V30 40 H 5.034812 4.969283 -17.917933 0
M  V30 41 H 4.819315 5.341873 -19.565806 0
M  V30 42 H 11.605886 5.231771 -6.928003 0
M  V30 43 H 9.834603 5.369078 -6.908522 0
M  V30 44 H 10.634916 4.962394 -8.395905 0
M  V30 45 H 5.551943 6.376890 -13.959468 0
M  V30 46 H 6.504809 3.644238 -21.305670 0
M  V30 47 H 9.435058 4.576947 -20.084818 0
M  V30 48 H 9.187168 3.957008 -21.794871 0
M  V30 49 H 7.835228 7.152354 -14.703009 0
M  V30 50 H 7.188898 6.765013 -18.795639 0
M  V30 51 H 8.858943 6.804762 -12.720328 0
M  V30 52 H 5.223633 6.836839 -16.461224 0
M  V30 53 H 6.627343 7.843515 -16.663702 0
M  V30 54 H 4.279402 7.517438 -19.086337 0
M  V30 55 H 5.392855 8.665231 -18.451472 0
M  V30 56 H 9.103417 8.969274 -11.744915 0
M  V30 57 H 7.834833 8.969373 -12.904602 0
M  V30 58 H 7.439645 8.975472 -11.179836 0
M  V30 59 H 5.845574 3.904811 -14.289392 0
M  V30 60 H 6.934951 3.874591 -12.901951 0
M  V30 61 H 5.249691 4.327024 -12.696134 0
M  V30 62 H 5.353388 6.333058 -21.372285 0
M  V30 63 H 9.723920 5.068159 -11.701979 0
M  V30 64 H 9.591886 7.006353 -22.003223 0
M  V30 65 H 7.489290 4.262336 -18.516384 0
M  V30 66 H 6.177178 3.229899 -19.001565 0
M  V30 67 H 6.662402 8.863497 -20.383040 0
M  V30 68 H 8.027695 5.725811 -16.773165 0
M  V30 69 H 6.651777 4.812314 -16.238406 0
M  V30 70 H 11.191355 7.312597 -5.639397 0
M  V30 71 H 9.490886 7.433603 -6.007476 0
M  V30 72 H 9.340349 9.269545 -22.783347 0
M  V30 73 H 7.520547 9.207100 -22.479515 0
M  V30 74 H 9.743435 9.553009 -6.949915 0
M  V30 75 H 11.834835 10.816232 -7.091661 0
M  V30 76 H 12.744955 9.511789 -6.383414 0
M  V30 77 H 3.743238 8.745185 -21.247738 0
M  V30 78 H 4.444569 10.035066 -20.284704 0
M  V30 79 H 4.992661 9.786724 -21.922581 0
M  V30 80 H 8.364677 4.361685 -14.595905 0
M  V30 81 H 11.358219 9.397662 -9.098292 0
M  V30 82 H 13.081041 9.369301 -8.822243 0
M  V30 83 H 6.482553 5.921203 -11.563531 0
M  V30 84 H 7.851596 6.169292 -9.934724 0
M  V30 85 H 6.448112 7.972877 -23.266027 0
M  V30 86 H 6.146101 7.366281 -12.206534 0
M  V30 END ATOM
M  V30 BEGIN BOND
M  V30 1 1 8 7
M  V30 2 1 9 6
M  V30 3 1 10 3
M  V30 4 1 13 10
M  V30 5 1 14 10
M  V30 6 1 15 11
M  V30 7 1 16 6
M  V30 8 1 17 4
M  V30 9 2 19 4
M  V30 10 1 19 7
M  V30 11 1 19 8
M  V30 12 1 20 12
M  V30 13 1 21 4
M  V30 14 1 22 3
M  V30 15 1 22 7
M  V30 16 1 23 14
M  V30 17 1 23 17
M  V30 18 1 24 9
M  V30 19 1 24 13
M  V30 20 2 26 21
M  V30 21 1 27 1
M  V30 22 1 27 25
M  V30 23 1 28 2
M  V30 24 1 28 5
M  V30 25 1 28 20 CFG=3
M  V30 26 1 28 25
M  V30 27 1 29 27
M  V30 28 1 30 23
M  V30 29 1 31 9
M  V30 30 1 32 2
M  V30 31 1 32 29
M  V30 32 2 33 12
M  V30 33 1 34 6
M  V30 34 1 34 11
M  V30 35 1 35 11
M  V30 36 1 35 12
M  V30 37 1 35 18
M  V30 38 1 36 17
M  V30 39 1 37 1
M  V30 40 1 38 2
M  V30 41 1 39 2
M  V30 42 1 40 3
M  V30 43 1 41 3
M  V30 44 1 42 5
M  V30 45 1 43 5
M  V30 46 1 44 5
M  V30 47 1 6 45 CFG=3
M  V30 48 1 7 46 CFG=3
M  V30 49 1 47 8
M  V30 50 1 48 8
M  V30 51 1 9 49 CFG=3
M  V30 52 1 10 50 CFG=3
M  V30 53 1 11 51 CFG=3
M  V30 54 1 52 13
M  V30 55 1 53 13
M  V30 56 1 54 14
M  V30 57 1 55 14
M  V30 58 1 56 15
M  V30 59 1 57 15
M  V30 60 1 58 15
M  V30 61 1 59 16
M  V30 62 1 60 16
M  V30 63 1 61 16
M  V30 64 1 17 62 CFG=1
M  V30 65 1 63 18
M  V30 66 1 64 21
M  V30 67 1 65 22
M  V30 68 1 66 22
M  V30 69 1 23 67 CFG=1
M  V30 70 1 68 24
M  V30 71 1 69 24
M  V30 72 1 70 25
M  V30 73 1 71 25
M  V30 74 1 72 26
M  V30 75 1 73 26
M  V30 76 1 27 74 CFG=3
M  V30 77 1 75 29
M  V30 78 1 76 29
M  V30 79 1 77 30
M  V30 80 1 78 30
M  V30 81 1 79 30
M  V30 82 1 80 31
M  V30 83 1 81 32
M  V30 84 1 82 32
M  V30 85 1 83 34
M  V30 86 1 35 84 CFG=1
M  V30 87 1 85 36
M  V30 88 1 86 34
M  V30 END BOND
M  V30 END CTAB
M  END
>  <i_epik_Tot_Q>  (1) 
1

>  <i_epik_Tot_abs_Q>  (1) 
1

>  <i_i_glide_confnum>  (1) 
2916

>  <i_i_glide_lignum>  (1) 
174

>  <i_i_glide_posenum>  (1) 
246

>  <i_i_glide_rotatable_bonds>  (1) 
15

>  <i_lp_mmshare_version>  (1) 
72125

>  <i_m_source_file_index>  (1) 
86

>  <i_f3d_flags>  (1) 
0

>  <num_sample>  (1) 
100

>  <b_lp_Chiralities_Consistent>  (1) 
1

>  <r_epik_Charging_Adjusted_Penalty>  (1) 
0.062696987853435748

>  <r_epik_Ionization_Penalty>  (1) 
0.034019236300638377

>  <r_epik_Ionization_Penalty_Charging>  (1) 
0.03134849392671793

>  <r_epik_Ionization_Penalty_Neutral>  (1) 
0.0026707423739204469

>  <r_epik_State_Penalty>  (1) 
0.031348493926717819

>  <r_glide_ring_energy>  (1) 
0

>  <r_i_docking_score>  (1) 
-2.561669633010299

>  <r_i_glide_ecoul>  (1) 
-2.7470388372208712

>  <r_i_glide_eff_state_penalty>  (1) 
0.031348493926717819

>  <r_i_glide_einternal>  (1) 
17.352017752680755

>  <r_i_glide_emodel>  (1) 
-16.614921230157194

>  <r_i_glide_emodel_strain>  (1) 
6.8977305495956216

>  <r_i_glide_energy>  (1) 
-27.695970025811107

>  <r_i_glide_erotb>  (1) 
0.87027123501495496

>  <r_i_glide_esite>  (1) 
-0.15121756496356864

>  <r_i_glide_evdw>  (1) 
-24.948931188590237

>  <r_i_glide_gscore>  (1) 
-2.5930181269370167

>  <r_i_glide_gscore_strain>  (1) 
0.7244326373989054

>  <r_i_glide_hbond>  (1) 
0

>  <r_i_glide_ligand_efficiency>  (1) 
-0.071157489805841634

>  <r_i_glide_ligand_efficiency_ln>  (1) 
-0.55888710560736976

>  <r_i_glide_ligand_efficiency_sa>  (1) 
-0.23495685455285018

>  <r_i_glide_lipo>  (1) 
-2.9559738516426459

>  <r_i_glide_metal>  (1) 
-0

>  <r_i_glide_rewards>  (1) 
0.57897180226798062

>  <r_lp_Energy>  (1) 
47.724364000000001

>  <s_epik_Chemistry_Notes>  (1) 
This compound has an ester and may undergo hydrolysis at high or low pH.

>  <s_epik_cmdline>  (1) 
J2VwaWtfcHl0aG9uJywgJy1waHQnLCAnMS4wJywgJy1waCcsICc3LjQnLCAnLXRuJywgJzgnLCAnLW1hJywgJzUwMCcsICctaW1hZScsICc8aW5maWxlLm1hZT4nLCAnLW9tYWUnLCAnPG91dGZpbGUubWFlPic=

>  <s_epik_input>  (1) 
W09IXVtDQEhdKFtDSDJdMSlbQ0gyXVtDSDJdW0NIMl1bQ0BdMShbQ0gzXSlPQyg9TylbQ0BIXShbT0hdKVtDQEhdKFtDSDNdKVtOSF1bQ0BIXShbQ0gzXSlbQ0BASF0oW09IXSlbQ0gyXVtDSDJdW0NAQEhdKFtDSDJdW0NIMl0yKVtDSDJdW0NASF0oW0NIM10pW0NAQEhdKFtPSF0pL0MoPUMoXFtDSF0yMylbQ0gyXTMpW0NIXT1bQ0gyXQ==

>  <s_glide_docking_method>  (1) 
confgen

>  <s_i_glide_gridfile>  (1) 
gpcr_drd2_6luq_protein_autoprepared_prepared

>  <s_lp_Force_Field>  (1) 
S-OPLS

>  <s_lp_Variant>  (1) 
DiffSBDD_85_num_sample_100-1

>  <s_m_source_file>  (1) 
generated__ligand_DiffSBDD_2026-05-06_prepared.sdf

>  <GenAI_Model>  (1) 
DiffSBDD

>  <Protein>  (1) 
generic_title2

$$$$
DiffSBDD_55_num_sample_100
     RDKit          3D

  0  0  0  0  0  0  0  0  0  0999 V3000
M  V30 BEGIN CTAB
M  V30 COUNTS 50 53 0 0 1
M  V30 BEGIN ATOM
M  V30 1 O 7.714225 -2.941110 -20.060991 0
M  V30 2 C 7.651318 5.769461 -11.499238 0
M  V30 3 C 5.785238 -0.781722 -16.601223 0
M  V30 4 C 6.606466 0.089301 -13.820329 0
M  V30 5 C 6.955695 0.555351 -18.800717 0 CFG=2
M  V30 6 C 6.810027 -0.961683 -18.903017 0 CFG=1
M  V30 7 S 5.871692 5.463480 -13.531227 0
M  V30 8 C 6.621943 6.570180 -12.305031 0
M  V30 9 C 8.131810 4.645809 -12.401371 0
M  V30 10 C 8.865443 -2.004755 -21.896398 0
M  V30 11 N 6.263033 0.569612 -16.298769 0
M  V30 12 C 7.939044 -1.563664 -19.773495 0 CFG=2
M  V30 13 C 6.736429 -1.593803 -17.492988 0 CFG=2
M  V30 14 C 8.081000 -0.940565 -21.162896 0
M  V30 15 C 8.279453 -3.291693 -21.320930 0
M  V30 16 C 7.012847 2.971492 -13.884795 0
M  V30 17 C 7.133124 0.743602 -15.115029 0 CFG=1
M  V30 18 C 7.350015 4.433931 -13.691421 0 CFG=1
M  V30 19 C 8.096577 1.170138 -18.029732 0
M  V30 20 O 9.099265 3.947053 -12.105233 0
M  V30 21 O 6.230416 -2.910694 -17.568016 0
M  V30 22 C 7.464467 2.224828 -14.910163 0
M  V30 23 C 6.678894 1.304153 -17.504146 0 CFG=1
M  V30 24 H 8.478485 6.395925 -11.165313 0
M  V30 25 H 7.185598 5.331749 -10.615786 0
M  V30 26 H 4.827669 -0.698324 -17.117659 0
M  V30 27 H 5.554051 -1.328793 -15.689757 0
M  V30 28 H 7.226177 0.348469 -12.960980 0
M  V30 29 H 5.578920 0.383092 -13.603213 0
M  V30 30 H 6.634957 -0.997614 -13.881463 0
M  V30 31 H 6.677537 1.078336 -19.713828 0
M  V30 32 H 5.856924 -1.142915 -19.402670 0
M  V30 33 H 7.115067 7.390450 -12.827551 0
M  V30 34 H 5.856159 7.003453 -11.660350 0
M  V30 35 H 9.923185 -1.928835 -21.640385 0
M  V30 36 H 8.770469 -1.939094 -22.980552 0
M  V30 37 H 8.894211 -1.480606 -19.251797 0
M  V30 38 H 7.728298 -1.636732 -17.042034 0
M  V30 39 H 7.101818 -0.810045 -21.626197 0
M  V30 40 H 8.587327 0.024873 -21.150027 0
M  V30 41 H 9.035995 -4.068513 -21.208139 0
M  V30 42 H 7.486856 -3.679973 -21.961252 0
M  V30 43 H 6.369614 2.528869 -13.139801 0
M  V30 44 H 8.089728 0.262816 -15.321434 0
M  V30 45 H 7.953624 4.797885 -14.523160 0
M  V30 46 H 8.557950 2.061446 -18.449303 0
M  V30 47 H 8.781553 0.497777 -17.517938 0
M  V30 48 H 6.358559 -3.327123 -16.726308 0
M  V30 49 H 8.107069 2.678924 -15.649906 0
M  V30 50 H 6.233248 2.294126 -17.551596 0
M  V30 END ATOM
M  V30 BEGIN BOND
M  V30 1 1 6 5
M  V30 2 1 8 2
M  V30 3 1 8 7
M  V30 4 1 9 2
M  V30 5 1 11 3
M  V30 6 1 12 1
M  V30 7 1 12 6
M  V30 8 1 13 3
M  V30 9 1 13 6
M  V30 10 1 14 10
M  V30 11 1 14 12
M  V30 12 1 15 1
M  V30 13 1 15 10
M  V30 14 1 17 4
M  V30 15 1 17 11
M  V30 16 1 18 7
M  V30 17 1 18 9
M  V30 18 1 18 16
M  V30 19 1 19 5
M  V30 20 2 20 9
M  V30 21 1 21 13
M  V30 22 2 22 16
M  V30 23 1 22 17
M  V30 24 1 23 5
M  V30 25 1 23 11
M  V30 26 1 23 19
M  V30 27 1 24 2
M  V30 28 1 25 2
M  V30 29 1 26 3
M  V30 30 1 27 3
M  V30 31 1 28 4
M  V30 32 1 29 4
M  V30 33 1 30 4
M  V30 34 1 5 31 CFG=3
M  V30 35 1 6 32 CFG=3
M  V30 36 1 33 8
M  V30 37 1 34 8
M  V30 38 1 35 10
M  V30 39 1 36 10
M  V30 40 1 12 37 CFG=1
M  V30 41 1 13 38 CFG=1
M  V30 42 1 39 14
M  V30 43 1 40 14
M  V30 44 1 41 15
M  V30 45 1 42 15
M  V30 46 1 43 16
M  V30 47 1 17 44 CFG=3
M  V30 48 1 18 45 CFG=3
M  V30 49 1 46 19
M  V30 50 1 47 19
M  V30 51 1 48 21
M  V30 52 1 49 22
M  V30 53 1 23 50 CFG=3
M  V30 END BOND
M  V30 END CTAB
M  END
>  <i_epik_Tot_Q>  (1) 
0

>  <i_epik_Tot_abs_Q>  (1) 
0

>  <i_i_glide_confnum>  (1) 
135

>  <i_i_glide_lignum>  (1) 
108

>  <i_i_glide_posenum>  (1) 
144

>  <i_i_glide_rotatable_bonds>  (1) 
5

>  <i_lp_mmshare_version>  (1) 
72125

>  <i_m_source_file_index>  (1) 
56

>  <i_f3d_flags>  (1) 
0

>  <num_sample>  (1) 
100

>  <b_lp_Chiralities_Consistent>  (1) 
1

>  <r_epik_Charging_Adjusted_Penalty>  (1) 
1.1351003249830234

>  <r_epik_Ionization_Penalty>  (1) 
1.13510036387319

>  <r_epik_Ionization_Penalty_Charging>  (1) 
0

>  <r_epik_Ionization_Penalty_Neutral>  (1) 
1.13510036387319

>  <r_epik_State_Penalty>  (1) 
1.1351003249830234

>  <r_glide_ring_energy>  (1) 
1.2361918707854085

>  <r_i_docking_score>  (1) 
-2.5294643540113944

>  <r_i_glide_ecoul>  (1) 
-1.472743122433505

>  <r_i_glide_eff_state_penalty>  (1) 
1.1351003249830234

>  <r_i_glide_einternal>  (1) 
1.8277160920576963

>  <r_i_glide_emodel>  (1) 
-34.669055436367287

>  <r_i_glide_emodel_strain>  (1) 
0

>  <r_i_glide_energy>  (1) 
-29.988181980537945

>  <r_i_glide_erotb>  (1) 
0.4978175189556282

>  <r_i_glide_esite>  (1) 
0

>  <r_i_glide_evdw>  (1) 
-28.515438858104439

>  <r_i_glide_gscore>  (1) 
-3.6645646789944175

>  <r_i_glide_gscore_strain>  (1) 
0

>  <r_i_glide_hbond>  (1) 
-0.18265111895679578

>  <r_i_glide_ligand_efficiency>  (1) 
-0.10997671104397366

>  <r_i_glide_ligand_efficiency_ln>  (1) 
-0.61164741671463863

>  <r_i_glide_ligand_efficiency_sa>  (1) 
-0.31275913709063369

>  <r_i_glide_lipo>  (1) 
-0.82460481532260521

>  <r_i_glide_metal>  (1) 
-0

>  <r_i_glide_rewards>  (1) 
-1.5084428524003965

>  <r_lp_Energy>  (1) 
15.605067999999999

>  <r_lp_tautomer_probability>  (1) 
0.99995000000000001

>  <s_epik_cmdline>  (1) 
J2VwaWtfcHl0aG9uJywgJy1waHQnLCAnMS4wJywgJy1waCcsICc3LjQnLCAnLXRuJywgJzgnLCAnLW1hJywgJzUwMCcsICctaW1hZScsICc8aW5maWxlLm1hZT4nLCAnLW9tYWUnLCAnPG91dGZpbGUubWFlPic=

>  <s_epik_input>  (1) 
W0NIMl0xW0NIMl1bQ0gyXU9bQ0BASF0xW0NASF0yW0NASF0oW09IXSlbQ0gyXU4oW0NASF0oW0NASF0yMylbQ0gyXTMpW0NASF0oW0NIM10pXFtDSF09W0NIXVxbQ0BIXTRTW0NIMl1bQ0gyXUM0PU8=

>  <s_glide_docking_method>  (1) 
confgen

>  <s_i_glide_gridfile>  (1) 
gpcr_drd2_6luq_protein_autoprepared_prepared

>  <s_lp_Force_Field>  (1) 
S-OPLS

>  <s_lp_Variant>  (1) 
DiffSBDD_55_num_sample_100-9

>  <s_m_source_file>  (1) 
generated__ligand_DiffSBDD_2026-05-06_prepared.sdf

>  <GenAI_Model>  (1) 
DiffSBDD

>  <Protein>  (1) 
generic_title2

$$$$
DiffSBDD_34_num_sample_100
     RDKit          3D

  0  0  0  0  0  0  0  0  0  0999 V3000
M  V30 BEGIN CTAB
M  V30 COUNTS 60 63 0 0 1
M  V30 BEGIN ATOM
M  V30 1 N 6.747710 1.584025 -16.930793 0
M  V30 2 C 9.000258 4.214073 -15.562842 0 CFG=1
M  V30 3 C 9.960418 6.763604 -9.741794 0
M  V30 4 C 10.946195 7.769468 -9.792195 0
M  V30 5 C 8.123664 4.758725 -18.046320 0
M  V30 6 C 12.038480 9.662518 -3.201193 0
M  V30 7 C 8.575225 5.288314 -16.632961 0
M  V30 8 C 7.471148 3.427226 -17.829201 0
M  V30 9 C 11.434825 8.613189 -6.065348 0
M  V30 10 N 11.434839 7.866952 -4.904166 0
M  V30 11 C 8.571450 6.935720 -11.937495 0
M  V30 12 C 9.891090 6.951934 -7.309367 0
M  V30 13 C 9.433750 6.361851 -8.501474 0
M  V30 14 C 10.906948 7.948841 -7.347053 0
M  V30 15 O 11.278687 6.477095 -5.068158 0
M  V30 16 C 9.271808 4.803254 -14.169855 0
M  V30 17 C 12.018587 8.185284 -3.595159 0
M  V30 18 C 9.355341 4.603038 -18.955185 0
M  V30 19 C 11.413243 8.364949 -8.601216 0
M  V30 20 C 6.444915 1.617161 -18.212906 0
M  V30 21 C 7.985561 4.793619 -13.317046 0 CFG=2
M  V30 22 O 7.109850 6.995440 -13.869880 0
M  V30 23 C 7.412854 2.740010 -16.644228 0
M  V30 24 O 11.855132 9.770146 -6.107798 0
M  V30 25 S 6.715707 3.874886 -14.242039 0
M  V30 26 C 9.474625 6.096932 -11.022542 0
M  V30 27 C 7.132132 5.759774 -18.671601 0
M  V30 28 C 7.517505 6.179146 -12.784502 0 CFG=2
M  V30 29 N 6.834809 2.702729 -18.880415 0
M  V30 30 C 7.950223 3.107909 -15.324197 0 CFG=2
M  V30 31 O 8.681228 8.162031 -11.998377 0
M  V30 32 H 9.909095 3.769569 -15.962865 0
M  V30 33 H 11.349057 8.083771 -10.742388 0
M  V30 34 H 12.255380 9.772240 -2.139300 0
M  V30 35 H 11.086254 10.157720 -3.396310 0
M  V30 36 H 12.825593 10.168994 -3.757155 0
M  V30 37 H 7.740816 5.840790 -16.200954 0
M  V30 38 H 9.375968 6.019898 -16.752600 0
M  V30 39 H 9.454198 6.645126 -6.374503 0
M  V30 40 H 8.668270 5.600796 -8.463200 0
M  V30 41 H 11.136242 6.156617 -4.190391 0
M  V30 42 H 9.982282 4.171265 -13.646657 0
M  V30 43 H 9.752574 5.769301 -14.239338 0
M  V30 44 H 11.444447 7.643446 -2.840429 0
M  V30 45 H 13.029723 7.779872 -3.549011 0
M  V30 46 H 9.859109 5.557929 -19.107706 0
M  V30 47 H 9.077531 4.219021 -19.936959 0
M  V30 48 H 10.079808 3.911951 -18.524246 0
M  V30 49 H 12.171684 9.134114 -8.648008 0
M  V30 50 H 5.913634 0.810733 -18.695169 0
M  V30 51 H 8.175810 4.151314 -12.457929 0
M  V30 52 H 6.912615 7.852493 -13.519243 0
M  V30 53 H 6.532081 0.839076 -16.282323 0
M  V30 54 H 8.958031 5.180533 -10.744203 0
M  V30 55 H 10.342769 5.794762 -11.604480 0
M  V30 56 H 7.583765 6.746829 -18.786701 0
M  V30 57 H 6.240007 5.872034 -18.052753 0
M  V30 58 H 6.804190 5.429904 -19.658290 0
M  V30 59 H 6.646957 6.031992 -12.144200 0
M  V30 60 H 8.365470 2.239014 -14.815959 0
M  V30 END ATOM
M  V30 BEGIN BOND
M  V30 1 1 4 3
M  V30 2 1 7 2
M  V30 3 1 7 5
M  V30 4 1 8 5
M  V30 5 1 10 9
M  V30 6 2 13 3
M  V30 7 1 13 12
M  V30 8 1 14 9
M  V30 9 2 14 12
M  V30 10 1 15 10
M  V30 11 1 16 2
M  V30 12 1 17 6
M  V30 13 1 17 10
M  V30 14 1 18 5
M  V30 15 2 19 4
M  V30 16 1 19 14
M  V30 17 1 20 1
M  V30 18 1 21 16
M  V30 19 1 23 1
M  V30 20 2 23 8
M  V30 21 2 24 9
M  V30 22 1 25 21
M  V30 23 1 26 3
M  V30 24 1 26 11
M  V30 25 1 27 5
M  V30 26 1 28 11
M  V30 27 1 28 21
M  V30 28 1 28 22
M  V30 29 1 29 8
M  V30 30 2 29 20
M  V30 31 1 30 2
M  V30 32 1 30 23
M  V30 33 1 30 25
M  V30 34 2 31 11
M  V30 35 1 2 32 CFG=3
M  V30 36 1 33 4
M  V30 37 1 34 6
M  V30 38 1 35 6
M  V30 39 1 36 6
M  V30 40 1 37 7
M  V30 41 1 38 7
M  V30 42 1 39 12
M  V30 43 1 40 13
M  V30 44 1 41 15
M  V30 45 1 42 16
M  V30 46 1 43 16
M  V30 47 1 44 17
M  V30 48 1 45 17
M  V30 49 1 46 18
M  V30 50 1 47 18
M  V30 51 1 48 18
M  V30 52 1 49 19
M  V30 53 1 50 20
M  V30 54 1 21 51 CFG=1
M  V30 55 1 52 22
M  V30 56 1 53 1
M  V30 57 1 54 26
M  V30 58 1 55 26
M  V30 59 1 56 27
M  V30 60 1 57 27
M  V30 61 1 58 27
M  V30 62 1 28 59 CFG=1
M  V30 63 1 30 60 CFG=1
M  V30 END BOND
M  V30 END CTAB
M  END
>  <i_epik_Tot_Q>  (1) 
0

>  <i_epik_Tot_abs_Q>  (1) 
0

>  <i_i_glide_confnum>  (1) 
206

>  <i_i_glide_lignum>  (1) 
61

>  <i_i_glide_posenum>  (1) 
337

>  <i_i_glide_rotatable_bonds>  (1) 
9

>  <i_lp_mmshare_version>  (1) 
72125

>  <i_m_source_file_index>  (1) 
35

>  <i_f3d_flags>  (1) 
0

>  <num_sample>  (1) 
100

>  <b_lp_Chiralities_Consistent>  (1) 
1

>  <r_epik_Charging_Adjusted_Penalty>  (1) 
1.1277689447001258

>  <r_epik_Ionization_Penalty>  (1) 
0.43889215687938127

>  <r_epik_Ionization_Penalty_Charging>  (1) 
0.41727290489040414

>  <r_epik_Ionization_Penalty_Neutral>  (1) 
0.021619251988977111

>  <r_epik_State_Penalty>  (1) 
0.71049603980972165

>  <r_glide_ring_energy>  (1) 
0

>  <r_i_docking_score>  (1) 
-2.5294086922303762

>  <r_i_glide_ecoul>  (1) 
-2.4580356727603325

>  <r_i_glide_eff_state_penalty>  (1) 
0.71049603980972165

>  <r_i_glide_einternal>  (1) 
14.595378785553407

>  <r_i_glide_emodel>  (1) 
-39.767478807432383

>  <r_i_glide_emodel_strain>  (1) 
1.7391277166732522

>  <r_i_glide_energy>  (1) 
-41.439047291496109

>  <r_i_glide_erotb>  (1) 
0.6096786253841594

>  <r_i_glide_esite>  (1) 
-0.059855794020159427

>  <r_i_glide_evdw>  (1) 
-38.981011618735778

>  <r_i_glide_gscore>  (1) 
-3.239904732040098

>  <r_i_glide_gscore_strain>  (1) 
0

>  <r_i_glide_hbond>  (1) 
0

>  <r_i_glide_ligand_efficiency>  (1) 
-0.081593828781625036

>  <r_i_glide_ligand_efficiency_ln>  (1) 
-0.57045917716491901

>  <r_i_glide_ligand_efficiency_sa>  (1) 
-0.25631727508913293

>  <r_i_glide_lipo>  (1) 
-1.765827218108547

>  <r_i_glide_metal>  (1) 
-0

>  <r_i_glide_rewards>  (1) 
0.29385558655528787

>  <r_lp_Energy>  (1) 
35.794798

>  <r_lp_tautomer_probability>  (1) 
0.49995000249987359

>  <s_epik_Chemistry_Notes>  (1) 
This compound has a N-S or N-O group and may undergo hydrolysis at high or low pH.

>  <s_epik_cmdline>  (1) 
J2VwaWtfcHl0aG9uJywgJy1waHQnLCAnMS4wJywgJy1waCcsICc3LjQnLCAnLXRuJywgJzgnLCAnLW1hJywgJzUwMCcsICctaW1hZScsICc8aW5maWxlLm1hZT4nLCAnLW9tYWUnLCAnPG91dGZpbGUubWFlPic=

>  <s_epik_input>  (1) 
TjE9W0NIXU49QyhDKFtDSDJdMikoW0NIM10pW0NIM10pW0NASF0xW0NAQEhdKFtDQEBIXTIzKVNbQ0BASF0oW0NIMl0zKVtDQEhdKFtPSF0pQyg9TylbQ0gyXWM0W2NIXVtjSF1jKFtjSF1bY0hdNClDKD1PKU4oW09IXSlbQ0gyXVtDSDNd

>  <s_glide_docking_method>  (1) 
confgen

>  <s_i_glide_gridfile>  (1) 
gpcr_drd2_6luq_protein_autoprepared_prepared

>  <s_lp_Force_Field>  (1) 
S-OPLS

>  <s_lp_Variant>  (1) 
DiffSBDD_34_num_sample_100-2

>  <s_m_source_file>  (1) 
generated__ligand_DiffSBDD_2026-05-06_prepared.sdf

>  <GenAI_Model>  (1) 
DiffSBDD

>  <Protein>  (1) 
generic_title2

$$$$
DiffSBDD_1_num_sample_100
     RDKit          3D

  0  0  0  0  0  0  0  0  0  0999 V3000
M  V30 BEGIN CTAB
M  V30 COUNTS 36 37 0 0 1
M  V30 BEGIN ATOM
M  V30 1 C 7.565890 3.061513 -19.045450 0
M  V30 2 C 5.076659 -0.020651 -19.044592 0 CFG=2
M  V30 3 C 5.475425 -0.566343 -17.654676 0 CFG=1
M  V30 4 Cl 5.035118 -2.284370 -17.498773 0
M  V30 5 O 9.156332 0.142939 -19.594297 0
M  V30 6 C 6.958935 -0.383470 -17.310642 0
M  V30 7 C 6.559823 -1.289660 -20.541572 0
M  V30 8 C 7.430502 1.048156 -17.601795 0
M  V30 9 C 7.330735 -0.109500 -21.146081 0
M  V30 10 C 7.163107 1.551241 -19.056406 0 CFG=1
M  V30 11 O 4.616026 4.194485 -21.100875 0
M  V30 12 O 5.252485 -0.938048 -20.121134 0
M  V30 13 P 5.516886 4.769227 -20.079340 0
M  V30 14 C 5.640811 1.391823 -19.321342 0
M  V30 15 O 5.746267 6.230184 -20.067822 0 CHG=-1
M  V30 16 C 7.189898 3.932771 -20.268438 0
M  V30 17 C 8.042477 0.823213 -20.143631 0 CFG=1
M  V30 18 H 8.648673 3.115332 -18.921268 0
M  V30 19 H 7.167585 3.553544 -18.157448 0
M  V30 20 H 3.991274 0.091139 -19.018627 0
M  V30 21 H 4.891860 -0.032410 -16.903230 0
M  V30 22 H 8.835503 -0.482364 -18.963214 0
M  V30 23 H 7.109674 -0.605714 -16.253172 0
M  V30 24 H 7.576536 -1.107065 -17.832396 0
M  V30 25 H 6.420463 -2.033711 -21.325941 0
M  V30 26 H 7.121055 -1.804732 -19.768031 0
M  V30 27 H 6.910967 1.700684 -16.898537 0
M  V30 28 H 8.485598 1.146566 -17.343044 0
M  V30 29 H 8.086260 -0.511834 -21.822332 0
M  V30 30 H 6.663473 0.465215 -21.789150 0
M  V30 31 H 5.376327 1.701096 -20.332080 0
M  V30 32 H 5.107727 2.077720 -18.664914 0
M  V30 33 H 7.939713 4.716070 -20.379663 0
M  V30 34 H 7.220373 3.364170 -21.196561 0
M  V30 35 H 8.507618 1.580814 -20.773966 0
M  V30 36 H 5.034840 4.396889 -18.794207 0
M  V30 END ATOM
M  V30 BEGIN BOND
M  V30 1 1 3 2
M  V30 2 1 4 3
M  V30 3 1 6 3
M  V30 4 1 8 6
M  V30 5 1 9 7
M  V30 6 1 10 1 CFG=1
M  V30 7 1 10 8
M  V30 8 1 12 2
M  V30 9 1 12 7
M  V30 10 2 13 11
M  V30 11 1 14 2
M  V30 12 1 14 10
M  V30 13 1 15 13
M  V30 14 1 16 1
M  V30 15 1 16 13
M  V30 16 1 17 5
M  V30 17 1 17 9
M  V30 18 1 17 10
M  V30 19 1 18 1
M  V30 20 1 19 1
M  V30 21 1 2 20 CFG=1
M  V30 22 1 3 21 CFG=1
M  V30 23 1 22 5
M  V30 24 1 23 6
M  V30 25 1 24 6
M  V30 26 1 25 7
M  V30 27 1 26 7
M  V30 28 1 27 8
M  V30 29 1 28 8
M  V30 30 1 29 9
M  V30 31 1 30 9
M  V30 32 1 31 14
M  V30 33 1 32 14
M  V30 34 1 33 16
M  V30 35 1 34 16
M  V30 36 1 17 35 CFG=3
M  V30 37 1 36 13
M  V30 END BOND
M  V30 END CTAB
M  END
>  <i_epik_Tot_Q>  (1) 
-1

>  <i_epik_Tot_abs_Q>  (1) 
1

>  <i_i_glide_confnum>  (1) 
4

>  <i_i_glide_lignum>  (1) 
3

>  <i_i_glide_posenum>  (1) 
82

>  <i_i_glide_rotatable_bonds>  (1) 
4

>  <i_lp_mmshare_version>  (1) 
72125

>  <i_m_source_file_index>  (1) 
2

>  <i_f3d_flags>  (1) 
0

>  <num_sample>  (1) 
100

>  <b_lp_Chiralities_Consistent>  (1) 
1

>  <r_epik_Charging_Adjusted_Penalty>  (1) 
1.9889919217114435e-05

>  <r_epik_Ionization_Penalty>  (1) 
1.9962460467374035e-05

>  <r_epik_Ionization_Penalty_Charging>  (1) 
1.9889919217114435e-05

>  <r_epik_Ionization_Penalty_Neutral>  (1) 
7.2541250259600902e-08

>  <r_epik_State_Penalty>  (1) 
-0

>  <r_glide_ring_energy>  (1) 
0

>  <r_i_docking_score>  (1) 
-2.5094061546435502

>  <r_i_glide_ecoul>  (1) 
-0.52944451791835356

>  <r_i_glide_eff_state_penalty>  (1) 
-0

>  <r_i_glide_einternal>  (1) 
1.7422485139058432

>  <r_i_glide_emodel>  (1) 
-19.746610185119529

>  <r_i_glide_emodel_strain>  (1) 
0

>  <r_i_glide_energy>  (1) 
-17.325638485308268

>  <r_i_glide_erotb>  (1) 
0.45571271474972769

>  <r_i_glide_esite>  (1) 
0

>  <r_i_glide_evdw>  (1) 
-16.796193967389915

>  <r_i_glide_gscore>  (1) 
-2.5094061546435502

>  <r_i_glide_gscore_strain>  (1) 
0

>  <r_i_glide_hbond>  (1) 
0

>  <r_i_glide_ligand_efficiency>  (1) 
-0.14761212674373825

>  <r_i_glide_ligand_efficiency_ln>  (1) 
-0.65464818401893476

>  <r_i_glide_ligand_efficiency_sa>  (1) 
-0.37955234405408439

>  <r_i_glide_lipo>  (1) 
-0.55747303879057464

>  <r_i_glide_metal>  (1) 
-0

>  <r_i_glide_rewards>  (1) 
-1.4884194545454539

>  <r_lp_Energy>  (1) 
23.177799999999998

>  <r_lp_tautomer_probability>  (1) 
1

>  <s_epik_cmdline>  (1) 
J2VwaWtfcHl0aG9uJywgJy1waHQnLCAnMS4wJywgJy1waCcsICc3LjQnLCAnLXRuJywgJzgnLCAnLW1hJywgJzUwMCcsICctaW1hZScsICc8aW5maWxlLm1hZT4nLCAnLW9tYWUnLCAnPG91dGZpbGUubWFlPic=

>  <s_epik_input>  (1) 
W09IXVAoW09IXSlbQ0gyXVtDSDJdW0NAQF0xMltDSDJdW0NIMl1bQ0BIXShDbClbQ0BASF0oW0NIMl0xKU9bQ0gyXVtDSDJdW0NAQEhdMltPSF0=

>  <s_glide_docking_method>  (1) 
confgen

>  <s_i_glide_gridfile>  (1) 
gpcr_drd2_6luq_protein_autoprepared_prepared

>  <s_lp_Force_Field>  (1) 
S-OPLS

>  <s_lp_Variant>  (1) 
DiffSBDD_1_num_sample_100-1

>  <s_m_source_file>  (1) 
generated__ligand_DiffSBDD_2026-05-06_prepared.sdf

>  <GenAI_Model>  (1) 
DiffSBDD

>  <Protein>  (1) 
generic_title2

$$$$
DiffSBDD_36_num_sample_100
     RDKit          3D

  0  0  0  0  0  0  0  0  0  0999 V3000
M  V30 BEGIN CTAB
M  V30 COUNTS 102 107 0 0 1
M  V30 BEGIN ATOM
M  V30 1 C 8.496988 5.369278 -7.097951 0
M  V30 2 O 10.786150 4.381289 -16.699420 0
M  V30 3 C 10.765139 6.931471 -13.023552 0
M  V30 4 C 7.188533 -5.969319 -17.463793 0
M  V30 5 C 7.723635 0.760077 -18.235306 0 CFG=1
M  V30 6 O 5.501016 -2.720423 -18.327523 0
M  V30 7 C 7.965766 6.010639 -14.862997 0
M  V30 8 C 9.834802 5.781886 -10.584947 0
M  V30 9 C 9.822241 4.937993 -11.880482 0 CFG=1
M  V30 10 C 10.878093 6.856314 -10.540115 0 CFG=1
M  V30 11 C 10.923404 5.661736 -18.650090 0
M  V30 12 C 7.584815 4.839021 -12.663438 0
M  V30 13 C 11.688549 6.929254 -11.835168 0
M  V30 14 C 9.037114 6.134823 -8.227995 0
M  V30 15 S 7.893346 -1.303273 -20.040994 0
M  V30 16 C 9.434734 7.409241 -7.980357 0
M  V30 17 C 12.805026 1.580201 -18.755973 0
M  V30 18 C 9.896580 8.387726 -8.922162 0
M  V30 19 C 7.857404 -3.162090 -17.944558 0
M  V30 20 C 11.461883 4.427405 -17.931377 0 CFG=2
M  V30 21 O 8.394299 -0.465868 -16.228243 0
M  V30 22 C 6.695404 1.244148 -13.245096 0
M  V30 23 C 7.581770 0.379465 -19.691415 0
M  V30 24 C 6.032818 -5.057766 -17.822865 0
M  V30 25 C 7.633276 -0.344712 -15.031982 0
M  V30 26 C 8.688926 3.958103 -12.119321 0
M  V30 27 O 13.127537 1.921582 -20.104951 0
M  V30 28 C 5.744462 0.168871 -12.706253 0
M  V30 29 C 8.319800 6.009778 -13.356239 0 CFG=2
M  V30 30 C 7.766043 7.325321 -12.747645 0
M  V30 31 S 4.461563 -5.596524 -17.988386 0
M  V30 32 O 11.140151 3.336113 -18.728728 0
M  V30 33 C 7.145981 1.061743 -14.708080 0
M  V30 34 C 10.328008 1.117305 -18.548524 0
M  V30 35 C 7.233844 1.244520 -20.655587 0
M  V30 36 N 9.787862 5.784019 -13.069962 0 CFG=1 CHG=1
M  V30 37 C 9.813754 5.419762 -16.623551 0 CFG=1
M  V30 38 C 7.660341 -0.567472 -17.438751 0 CFG=2
M  V30 39 C 6.369135 -3.553835 -18.056885 0
M  V30 40 O 13.855243 2.531648 -18.941048 0
M  V30 41 C 8.984260 1.622604 -17.984051 0
M  V30 42 O 8.147329 3.843490 -15.880634 0
M  V30 43 C 8.242378 -1.711535 -18.312156 0 CFG=2
M  V30 44 C 10.490742 8.152547 -10.074154 0
M  V30 45 C 9.054154 5.476270 -9.543024 0
M  V30 46 C 11.482960 2.064322 -18.190326 0 CFG=1
M  V30 47 C 9.520029 5.736634 -18.093051 0
M  V30 48 C 8.601061 4.974056 -15.792095 0
M  V30 49 H 8.312148 4.364978 -7.491661 0
M  V30 50 H 9.278194 5.386186 -6.342154 0
M  V30 51 H 7.575031 5.769387 -6.686229 0
M  V30 52 H 10.262492 7.891696 -12.956995 0
M  V30 53 H 11.434863 6.908546 -13.890814 0
M  V30 54 H 7.708958 -5.590721 -16.584054 0
M  V30 55 H 6.835319 -6.976471 -17.239493 0
M  V30 56 H 6.857925 1.357761 -17.947078 0
M  V30 57 H 8.234237 6.969318 -15.233979 0
M  V30 58 H 10.728990 4.351381 -11.891662 0
M  V30 59 H 11.554181 6.570436 -9.731660 0
M  V30 60 H 11.506807 6.536418 -18.356693 0
M  V30 61 H 10.967370 5.547179 -19.733657 0
M  V30 62 H 6.968505 5.185440 -11.832265 0
M  V30 63 H 6.926143 4.291991 -13.335391 0
M  V30 64 H 12.389634 7.764135 -11.835845 0
M  V30 65 H 12.287190 6.046522 -11.970182 0
M  V30 66 H 9.305925 7.755964 -6.965017 0
M  V30 67 H 13.139120 0.593582 -18.441287 0
M  V30 68 H 9.735930 9.369389 -8.662202 0
M  V30 69 H 8.412539 -3.831050 -18.599152 0
M  V30 70 H 8.219106 -3.374537 -16.941434 0
M  V30 71 H 12.541903 4.477910 -17.784446 0
M  V30 72 H 7.576095 1.275377 -12.602841 0
M  V30 73 H 6.211260 2.212885 -13.145724 0
M  V30 74 H 6.785737 -1.030694 -15.024971 0
M  V30 75 H 8.314146 -0.631226 -14.237974 0
M  V30 76 H 8.423916 3.370193 -11.258176 0
M  V30 77 H 8.993915 3.246098 -12.889502 0
M  V30 78 H 5.434978 0.406648 -11.688229 0
M  V30 79 H 4.846886 0.076237 -13.319802 0
M  V30 80 H 6.235661 -0.804532 -12.663187 0
M  V30 81 H 6.681108 7.370203 -12.857654 0
M  V30 82 H 7.975776 7.418924 -11.681869 0
M  V30 83 H 8.149725 8.215811 -13.238617 0
M  V30 84 H 7.891772 -6.036754 -18.295073 0
M  V30 85 H 7.987148 1.725492 -14.864744 0
M  V30 86 H 6.355473 1.351635 -15.400538 0
M  V30 87 H 10.556425 0.132953 -18.144718 0
M  V30 88 H 10.266631 1.015918 -19.632568 0
M  V30 89 H 7.038795 2.282086 -20.429586 0
M  V30 90 H 7.140028 0.924723 -21.682467 0
M  V30 91 H 10.301301 6.267159 -16.151468 0
M  V30 92 H 6.609915 -0.771647 -17.235234 0
M  V30 93 H 8.781884 2.606867 -18.403365 0
M  V30 94 H 9.112066 1.782003 -16.915504 0
M  V30 95 H 6.883022 5.950340 -14.981346 0
M  V30 96 H 9.324036 -1.655338 -18.221192 0
M  V30 97 H 10.784035 8.969219 -10.690225 0
M  V30 98 H 8.398753 4.632286 -9.657213 0
M  V30 99 H 11.576466 2.096071 -17.102556 0
M  V30 100 H 8.886770 4.972702 -18.544944 0
M  V30 101 H 9.061431 6.705612 -18.289680 0
M  V30 102 H 10.132417 5.162572 -13.789991 0
M  V30 END ATOM
M  V30 BEGIN BOND
M  V30 1 1 9 8
M  V30 2 1 10 8
M  V30 3 1 13 3
M  V30 4 1 13 10
M  V30 5 1 14 1
M  V30 6 2 16 14
M  V30 7 1 18 16
M  V30 8 1 20 2
M  V30 9 1 20 11
M  V30 10 1 23 5
M  V30 11 1 23 15
M  V30 12 1 24 4
M  V30 13 1 25 21
M  V30 14 1 26 9
M  V30 15 1 26 12
M  V30 16 1 27 17
M  V30 17 1 28 22
M  V30 18 1 29 7 CFG=3
M  V30 19 1 29 12
M  V30 20 1 30 29
M  V30 21 2 31 24
M  V30 22 1 32 20
M  V30 23 1 33 22
M  V30 24 1 33 25
M  V30 25 2 35 23
M  V30 26 1 36 3
M  V30 27 1 36 9
M  V30 28 1 36 29
M  V30 29 1 37 2
M  V30 30 1 38 5
M  V30 31 1 38 21
M  V30 32 2 39 6
M  V30 33 1 39 19
M  V30 34 1 39 24
M  V30 35 1 40 17
M  V30 36 1 40 27
M  V30 37 1 41 5
M  V30 38 1 41 34
M  V30 39 1 43 15
M  V30 40 1 43 19
M  V30 41 1 43 38
M  V30 42 1 44 10
M  V30 43 2 44 18
M  V30 44 2 45 8
M  V30 45 1 45 14
M  V30 46 1 46 17
M  V30 47 1 46 32
M  V30 48 1 46 34
M  V30 49 1 47 11
M  V30 50 1 47 37
M  V30 51 1 48 7
M  V30 52 1 48 37
M  V30 53 2 48 42
M  V30 54 1 49 1
M  V30 55 1 50 1
M  V30 56 1 51 1
M  V30 57 1 52 3
M  V30 58 1 53 3
M  V30 59 1 54 4
M  V30 60 1 55 4
M  V30 61 1 5 56 CFG=1
M  V30 62 1 57 7
M  V30 63 1 9 58 CFG=3
M  V30 64 1 10 59 CFG=1
M  V30 65 1 60 11
M  V30 66 1 61 11
M  V30 67 1 62 12
M  V30 68 1 63 12
M  V30 69 1 64 13
M  V30 70 1 65 13
M  V30 71 1 66 16
M  V30 72 1 67 17
M  V30 73 1 68 18
M  V30 74 1 69 19
M  V30 75 1 70 19
M  V30 76 1 20 71 CFG=1
M  V30 77 1 72 22
M  V30 78 1 73 22
M  V30 79 1 74 25
M  V30 80 1 75 25
M  V30 81 1 76 26
M  V30 82 1 77 26
M  V30 83 1 78 28
M  V30 84 1 79 28
M  V30 85 1 80 28
M  V30 86 1 81 30
M  V30 87 1 82 30
M  V30 88 1 83 30
M  V30 89 1 84 4
M  V30 90 1 85 33
M  V30 91 1 86 33
M  V30 92 1 87 34
M  V30 93 1 88 34
M  V30 94 1 89 35
M  V30 95 1 90 35
M  V30 96 1 37 91 CFG=1
M  V30 97 1 38 92 CFG=1
M  V30 98 1 93 41
M  V30 99 1 94 41
M  V30 100 1 95 7
M  V30 101 1 43 96 CFG=3
M  V30 102 1 97 44
M  V30 103 1 98 45
M  V30 104 1 46 99 CFG=1
M  V30 105 1 100 47
M  V30 106 1 101 47
M  V30 107 1 36 102 CFG=3
M  V30 END BOND
M  V30 END CTAB
M  END
>  <i_epik_Tot_Q>  (1) 
1

>  <i_epik_Tot_abs_Q>  (1) 
1

>  <i_i_glide_confnum>  (1) 
1445

>  <i_i_glide_lignum>  (1) 
65

>  <i_i_glide_posenum>  (1) 
126

>  <i_i_glide_rotatable_bonds>  (1) 
16

>  <i_lp_mmshare_version>  (1) 
72125

>  <i_m_source_file_index>  (1) 
37

>  <i_f3d_flags>  (1) 
0

>  <num_sample>  (1) 
100

>  <b_lp_Chiralities_Consistent>  (1) 
1

>  <r_epik_Charging_Adjusted_Penalty>  (1) 
0.91210119875661555

>  <r_epik_Ionization_Penalty>  (1) 
0.45605060116919061

>  <r_epik_Ionization_Penalty_Charging>  (1) 
0.45605059937830777

>  <r_epik_Ionization_Penalty_Neutral>  (1) 
1.7908828364046034e-09

>  <r_epik_State_Penalty>  (1) 
0.45605059937830777

>  <r_glide_ring_energy>  (1) 
0.90833713593568233

>  <r_i_docking_score>  (1) 
-2.4848739594697733

>  <r_i_glide_ecoul>  (1) 
-2.2618139451209984

>  <r_i_glide_eff_state_penalty>  (1) 
0.45605059937830777

>  <r_i_glide_einternal>  (1) 
5.6894462096010869

>  <r_i_glide_emodel>  (1) 
-14.30721983425056

>  <r_i_glide_emodel_strain>  (1) 
0.42015234384561495

>  <r_i_glide_energy>  (1) 
-9.9757078599572715

>  <r_i_glide_erotb>  (1) 
0.43548923687221863

>  <r_i_glide_esite>  (1) 
-0.10506243492751005

>  <r_i_glide_evdw>  (1) 
-7.713893914836274

>  <r_i_glide_gscore>  (1) 
-2.940924558848081

>  <r_i_glide_gscore_strain>  (1) 
0

>  <r_i_glide_hbond>  (1) 
0

>  <r_i_glide_ligand_efficiency>  (1) 
-0.05176820748895361

>  <r_i_glide_ligand_efficiency_ln>  (1) 
-0.51011525779894773

>  <r_i_glide_ligand_efficiency_sa>  (1) 
-0.18813815176436921

>  <r_i_glide_lipo>  (1) 
-1.4212444151878676

>  <r_i_glide_metal>  (1) 
-0

>  <r_i_glide_rewards>  (1) 
-1.1251401580949585

>  <r_lp_Energy>  (1) 
28.938099999999999

>  <r_lp_tautomer_probability>  (1) 
0.99994996000200076

>  <s_epik_Chemistry_Notes>  (1) 
This compound contains an acetal/aminal-like group ( X-CH(R)-Y where X, Y are N, S, or O) that may be acid/base labile, releasing an aldehyde.

>  <s_epik_cmdline>  (1) 
J2VwaWtfcHl0aG9uJywgJy1waHQnLCAnMS4wJywgJy1waCcsICc3LjQnLCAnLXRuJywgJzgnLCAnLW1hJywgJzUwMCcsICctaW1hZScsICc8aW5maWxlLm1hZT4nLCAnLW9tYWUnLCAnPG91dGZpbGUubWFlPic=

>  <s_epik_input>  (1) 
W0NIM11DKFtDSF0xKT1bQ0hdW0NIXT1bQ0hdW0NAQEhdMltDSDJdW0NIMl1OKFtDQEhdM0M9MTIpW0NAXShbQ0gzXSkoW0NIMl1bQ0gyXTMpL1tDSF09QyhbT0hdKS9bQ0BIXShbQ0gyXVtDSDJdNClPW0NASF00T1tDQEhdKFtDSF01T081KVtDSDJdW0NIMl1bQ0BIXTZDKD1bQ0gyXSlTW0NASF0oW0NIMl1DKD1PKUMoPVtDSDJdKVtTSF0pW0NASF02T1tDSDJdW0NIMl1bQ0gyXVtDSDNd

>  <s_glide_docking_method>  (1) 
confgen

>  <s_i_glide_gridfile>  (1) 
gpcr_drd2_6luq_protein_autoprepared_prepared

>  <s_lp_Force_Field>  (1) 
S-OPLS

>  <s_lp_Variant>  (1) 
DiffSBDD_36_num_sample_100-2

>  <s_m_source_file>  (1) 
generated__ligand_DiffSBDD_2026-05-06_prepared.sdf

>  <GenAI_Model>  (1) 
DiffSBDD

>  <Protein>  (1) 
generic_title2

$$$$
DiffSBDD_34_num_sample_100
     RDKit          3D

  0  0  0  0  0  0  0  0  0  0999 V3000
M  V30 BEGIN CTAB
M  V30 COUNTS 60 63 0 0 1
M  V30 BEGIN ATOM
M  V30 1 N 6.719893 1.769324 -17.058346 0
M  V30 2 C 9.027512 4.254308 -15.508444 0 CFG=1
M  V30 3 C 9.834877 6.733145 -9.601814 0
M  V30 4 C 10.715448 7.831713 -9.677441 0
M  V30 5 C 8.330033 4.886083 -18.016922 0
M  V30 6 C 12.055978 7.282207 -2.438915 0
M  V30 7 C 8.689486 5.368761 -16.564309 0
M  V30 8 C 7.588911 3.590787 -17.868142 0
M  V30 9 C 11.303871 8.661844 -5.962834 0
M  V30 10 N 11.434921 7.913385 -4.820234 0
M  V30 11 C 8.551718 6.897254 -11.888954 0
M  V30 12 C 9.876577 6.868446 -7.161894 0
M  V30 13 C 9.416401 6.256777 -8.343513 0
M  V30 14 C 10.781797 7.965529 -7.229433 0
M  V30 15 O 11.434802 6.512491 -5.003432 0
M  V30 16 C 9.254086 4.807448 -14.091601 0
M  V30 17 C 12.140431 8.302660 -3.593661 0
M  V30 18 C 9.620511 4.664144 -18.825867 0
M  V30 19 C 11.180206 8.450273 -8.498536 0
M  V30 20 C 6.480948 1.853657 -18.351427 0
M  V30 21 C 7.940143 4.791694 -13.280911 0 CFG=2
M  V30 22 O 7.044122 6.972037 -13.817067 0
M  V30 23 C 7.434889 2.876927 -16.706932 0
M  V30 24 O 11.612584 9.853270 -6.002209 0
M  V30 25 S 6.681650 3.945991 -14.287816 0
M  V30 26 C 9.340920 6.048318 -10.875088 0
M  V30 27 C 7.458033 5.957345 -18.699330 0
M  V30 28 C 7.477771 6.168465 -12.732778 0 CFG=2
M  V30 29 N 6.963436 2.932136 -18.968191 0
M  V30 30 C 7.931685 3.177186 -15.351302 0 CFG=2
M  V30 31 O 8.770151 8.102518 -12.026814 0
M  V30 32 H 9.936083 3.791849 -15.891692 0
M  V30 33 H 11.035695 8.201314 -10.640084 0
M  V30 34 H 12.476844 7.711202 -1.529195 0
M  V30 35 H 12.630174 6.380377 -2.657173 0
M  V30 36 H 11.034811 6.976521 -2.214499 0
M  V30 37 H 7.832549 5.915546 -16.173394 0
M  V30 38 H 9.502542 6.094215 -16.604677 0
M  V30 39 H 9.523918 6.502484 -6.211469 0
M  V30 40 H 8.732939 5.422413 -8.283277 0
M  V30 41 H 11.381738 6.170537 -4.123846 0
M  V30 42 H 9.942216 4.169271 -13.549308 0
M  V30 43 H 9.747237 5.769260 -14.123448 0
M  V30 44 H 13.186126 8.490225 -3.837592 0
M  V30 45 H 11.729399 9.254982 -3.255486 0
M  V30 46 H 10.196074 5.585418 -18.920835 0
M  V30 47 H 9.398727 4.310680 -19.833289 0
M  V30 48 H 10.264037 3.921460 -18.353216 0
M  V30 49 H 11.854041 9.292181 -8.566480 0
M  V30 50 H 5.927892 1.091756 -18.881359 0
M  V30 51 H 8.094314 4.125123 -12.431366 0
M  V30 52 H 6.384739 6.486485 -14.289507 0
M  V30 53 H 6.432034 1.021074 -16.443545 0
M  V30 54 H 8.717128 5.205290 -10.579955 0
M  V30 55 H 10.203415 5.631705 -11.394096 0
M  V30 56 H 7.982576 6.911503 -18.759501 0
M  V30 57 H 6.530341 6.123702 -18.151055 0
M  V30 58 H 7.188990 5.665462 -19.715146 0
M  V30 59 H 6.614902 6.015806 -12.084213 0
M  V30 60 H 8.302740 2.279118 -14.858188 0
M  V30 END ATOM
M  V30 BEGIN BOND
M  V30 1 1 4 3
M  V30 2 1 7 2
M  V30 3 1 7 5
M  V30 4 1 8 5
M  V30 5 1 10 9
M  V30 6 2 13 3
M  V30 7 1 13 12
M  V30 8 1 14 9
M  V30 9 2 14 12
M  V30 10 1 15 10
M  V30 11 1 16 2
M  V30 12 1 17 6
M  V30 13 1 17 10
M  V30 14 1 18 5
M  V30 15 2 19 4
M  V30 16 1 19 14
M  V30 17 1 20 1
M  V30 18 1 21 16
M  V30 19 1 23 1
M  V30 20 2 23 8
M  V30 21 2 24 9
M  V30 22 1 25 21
M  V30 23 1 26 3
M  V30 24 1 26 11
M  V30 25 1 27 5
M  V30 26 1 28 11
M  V30 27 1 28 21
M  V30 28 1 28 22
M  V30 29 1 29 8
M  V30 30 2 29 20
M  V30 31 1 30 2
M  V30 32 1 30 23
M  V30 33 1 30 25
M  V30 34 2 31 11
M  V30 35 1 2 32 CFG=3
M  V30 36 1 33 4
M  V30 37 1 34 6
M  V30 38 1 35 6
M  V30 39 1 36 6
M  V30 40 1 37 7
M  V30 41 1 38 7
M  V30 42 1 39 12
M  V30 43 1 40 13
M  V30 44 1 41 15
M  V30 45 1 42 16
M  V30 46 1 43 16
M  V30 47 1 44 17
M  V30 48 1 45 17
M  V30 49 1 46 18
M  V30 50 1 47 18
M  V30 51 1 48 18
M  V30 52 1 49 19
M  V30 53 1 50 20
M  V30 54 1 21 51 CFG=1
M  V30 55 1 52 22
M  V30 56 1 53 1
M  V30 57 1 54 26
M  V30 58 1 55 26
M  V30 59 1 56 27
M  V30 60 1 57 27
M  V30 61 1 58 27
M  V30 62 1 28 59 CFG=1
M  V30 63 1 30 60 CFG=1
M  V30 END BOND
M  V30 END CTAB
M  END
>  <i_epik_Tot_Q>  (1) 
0

>  <i_epik_Tot_abs_Q>  (1) 
0

>  <i_i_glide_confnum>  (1) 
206

>  <i_i_glide_lignum>  (1) 
61

>  <i_i_glide_posenum>  (1) 
337

>  <i_i_glide_rotatable_bonds>  (1) 
9

>  <i_lp_mmshare_version>  (1) 
72125

>  <i_m_source_file_index>  (1) 
35

>  <i_f3d_flags>  (1) 
0

>  <num_sample>  (1) 
100

>  <b_lp_Chiralities_Consistent>  (1) 
1

>  <r_epik_Charging_Adjusted_Penalty>  (1) 
1.1277689447001258

>  <r_epik_Ionization_Penalty>  (1) 
0.43889215687938127

>  <r_epik_Ionization_Penalty_Charging>  (1) 
0.41727290489040414

>  <r_epik_Ionization_Penalty_Neutral>  (1) 
0.021619251988977111

>  <r_epik_State_Penalty>  (1) 
0.71049603980972165

>  <r_glide_ring_energy>  (1) 
0

>  <r_i_docking_score>  (1) 
-2.4756482523869003

>  <r_i_glide_ecoul>  (1) 
-2.1384333619331204

>  <r_i_glide_eff_state_penalty>  (1) 
0.71049603980972165

>  <r_i_glide_einternal>  (1) 
18.584466563848089

>  <r_i_glide_emodel>  (1) 
-39.327958536359162

>  <r_i_glide_emodel_strain>  (1) 
1.7465831809870878

>  <r_i_glide_energy>  (1) 
-43.123739537049509

>  <r_i_glide_erotb>  (1) 
0.6096786253841594

>  <r_i_glide_esite>  (1) 
-0.063876441488644478

>  <r_i_glide_evdw>  (1) 
-40.985306175116392

>  <r_i_glide_gscore>  (1) 
-3.1861442921966221

>  <r_i_glide_gscore_strain>  (1) 
0

>  <r_i_glide_hbond>  (1) 
0

>  <r_i_glide_ligand_efficiency>  (1) 
-0.079859621044738718

>  <r_i_glide_ligand_efficiency_ln>  (1) 
-0.55833455042059843

>  <r_i_glide_ligand_efficiency_sa>  (1) 
-0.25086946845725078

>  <r_i_glide_lipo>  (1) 
-1.6542661250437591

>  <r_i_glide_metal>  (1) 
-0

>  <r_i_glide_rewards>  (1) 
0.29234996199741103

>  <r_lp_Energy>  (1) 
35.794798

>  <r_lp_tautomer_probability>  (1) 
0.49995000249987359

>  <s_epik_Chemistry_Notes>  (1) 
This compound has a N-S or N-O group and may undergo hydrolysis at high or low pH.

>  <s_epik_cmdline>  (1) 
J2VwaWtfcHl0aG9uJywgJy1waHQnLCAnMS4wJywgJy1waCcsICc3LjQnLCAnLXRuJywgJzgnLCAnLW1hJywgJzUwMCcsICctaW1hZScsICc8aW5maWxlLm1hZT4nLCAnLW9tYWUnLCAnPG91dGZpbGUubWFlPic=

>  <s_epik_input>  (1) 
TjE9W0NIXU49QyhDKFtDSDJdMikoW0NIM10pW0NIM10pW0NASF0xW0NAQEhdKFtDQEBIXTIzKVNbQ0BASF0oW0NIMl0zKVtDQEhdKFtPSF0pQyg9TylbQ0gyXWM0W2NIXVtjSF1jKFtjSF1bY0hdNClDKD1PKU4oW09IXSlbQ0gyXVtDSDNd

>  <s_glide_docking_method>  (1) 
confgen

>  <s_i_glide_gridfile>  (1) 
gpcr_drd2_6luq_protein_autoprepared_prepared

>  <s_lp_Force_Field>  (1) 
S-OPLS

>  <s_lp_Variant>  (1) 
DiffSBDD_34_num_sample_100-2

>  <s_m_source_file>  (1) 
generated__ligand_DiffSBDD_2026-05-06_prepared.sdf

>  <GenAI_Model>  (1) 
DiffSBDD

>  <Protein>  (1) 
generic_title2

$$$$
DiffSBDD_6_num_sample_100
     RDKit          3D

  0  0  0  0  0  0  0  0  0  0999 V3000
M  V30 BEGIN CTAB
M  V30 COUNTS 65 68 0 0 1
M  V30 BEGIN ATOM
M  V30 1 N 6.694536 5.350771 -15.702698 0
M  V30 2 N 13.060367 5.010849 -18.026425 0
M  V30 3 C 13.675417 6.061763 -18.752158 0
M  V30 4 C 11.961338 6.047541 -20.677715 0
M  V30 5 C 9.565234 6.762378 -11.908022 0
M  V30 6 N 9.693578 4.793145 -18.010215 0 CFG=2 CHG=1
M  V30 7 C 6.831321 5.609971 -14.323700 0
M  V30 8 F 16.019626 5.932423 -18.454716 0
M  V30 9 C 7.040074 5.334319 -19.431874 0
M  V30 10 C 5.703185 6.041935 -16.532086 0
M  V30 11 C 10.742393 5.689034 -18.535166 0 CFG=1
M  V30 12 F 9.914147 6.570884 -10.636525 0
M  V30 13 C 8.551945 5.454825 -17.301768 0 CFG=2
M  V30 14 C 11.712771 4.537947 -18.326047 0 CFG=2
M  V30 15 C 10.765629 4.208922 -17.176530 0
M  V30 16 F 10.588981 6.385002 -12.674026 0
M  V30 17 C 6.274026 4.743510 -11.422824 0
M  V30 18 C 5.435264 4.796648 -12.453665 0
M  V30 19 C 8.292250 6.013683 -12.291936 0
M  V30 20 C 7.644305 4.523876 -16.459455 0 CFG=1
M  V30 21 F 14.879575 3.764221 -17.379885 0
M  V30 22 C 5.547443 5.738269 -13.591147 0
M  V30 23 C 7.491243 5.532829 -11.285223 0
M  V30 24 C 10.614423 6.194970 -19.952741 0
M  V30 25 C 8.258763 3.391762 -15.617235 0
M  V30 26 F 15.137356 7.901050 -18.469030 0
M  V30 27 C 13.193276 6.559584 -19.926574 0
M  V30 28 C 7.610611 6.215997 -18.294900 0 CFG=2
M  V30 29 C 8.036286 5.770241 -13.732558 0
M  V30 30 C 14.939757 6.632501 -18.109817 0
M  V30 31 C 6.436153 6.919423 -17.555608 0
M  V30 32 C 13.743073 4.304380 -16.939111 0
M  V30 33 F 9.387278 8.070172 -12.087325 0
M  V30 34 H 11.910464 6.587301 -21.624628 0
M  V30 35 H 12.139747 5.007461 -20.956439 0
M  V30 36 H 6.288903 4.629749 -19.076555 0
M  V30 37 H 6.547048 5.952224 -20.183544 0
M  V30 38 H 7.805123 4.756695 -19.948182 0
M  V30 39 H 5.045933 5.369319 -17.067939 0
M  V30 40 H 5.056686 6.692216 -15.944378 0
M  V30 41 H 10.960839 6.505983 -17.839328 0
M  V30 42 H 8.995684 6.169301 -16.610790 0
M  V30 43 H 11.687045 3.782486 -19.114908 0
M  V30 44 H 10.964999 4.761269 -16.253271 0
M  V30 45 H 10.686076 3.137316 -17.002947 0
M  V30 46 H 6.026070 4.071239 -10.614920 0
M  V30 47 H 4.562901 4.164005 -12.448715 0
M  V30 48 H 7.032848 3.965972 -17.164899 0
M  V30 49 H 5.423670 6.764599 -13.243676 0
M  V30 50 H 4.694557 5.508730 -14.225968 0
M  V30 51 H 7.822319 5.715947 -10.274026 0
M  V30 52 H 10.313742 7.243081 -19.950038 0
M  V30 53 H 9.853187 5.651830 -20.511318 0
M  V30 54 H 8.675288 2.595753 -16.232882 0
M  V30 55 H 9.034381 3.769289 -14.961354 0
M  V30 56 H 7.499165 2.916102 -14.994395 0
M  V30 57 H 13.725238 7.368328 -20.403415 0
M  V30 58 H 8.196419 7.000666 -18.775249 0
M  V30 59 H 8.901935 5.738531 -14.371945 0
M  V30 60 H 14.884189 6.657247 -17.023177 0
M  V30 61 H 5.723731 7.327554 -18.273894 0
M  V30 62 H 6.793910 7.770684 -16.998410 0
M  V30 63 H 13.965160 4.950033 -16.089833 0
M  V30 64 H 13.156598 3.468672 -16.557074 0
M  V30 65 H 9.389018 4.132699 -18.710115 0
M  V30 END ATOM
M  V30 BEGIN BOND
M  V30 1 1 3 2
M  V30 2 1 7 1
M  V30 3 1 10 1
M  V30 4 1 11 6
M  V30 5 1 12 5
M  V30 6 1 13 6
M  V30 7 1 14 2
M  V30 8 1 14 11
M  V30 9 1 15 6
M  V30 10 1 15 14
M  V30 11 1 16 5
M  V30 12 2 18 17
M  V30 13 1 19 5
M  V30 14 1 20 1
M  V30 15 1 20 13
M  V30 16 1 22 7
M  V30 17 1 22 18
M  V30 18 1 23 17
M  V30 19 2 23 19
M  V30 20 1 24 4
M  V30 21 1 24 11
M  V30 22 1 25 20
M  V30 23 2 27 3
M  V30 24 1 27 4
M  V30 25 1 28 9
M  V30 26 1 28 13
M  V30 27 2 29 7
M  V30 28 1 29 19
M  V30 29 1 30 3
M  V30 30 1 30 8
M  V30 31 1 30 26
M  V30 32 1 31 10
M  V30 33 1 31 28
M  V30 34 1 32 2
M  V30 35 1 32 21
M  V30 36 1 33 5
M  V30 37 1 34 4
M  V30 38 1 35 4
M  V30 39 1 36 9
M  V30 40 1 37 9
M  V30 41 1 38 9
M  V30 42 1 39 10
M  V30 43 1 40 10
M  V30 44 1 11 41 CFG=1
M  V30 45 1 13 42 CFG=1
M  V30 46 1 14 43 CFG=3
M  V30 47 1 44 15
M  V30 48 1 45 15
M  V30 49 1 46 17
M  V30 50 1 47 18
M  V30 51 1 20 48 CFG=3
M  V30 52 1 49 22
M  V30 53 1 50 22
M  V30 54 1 51 23
M  V30 55 1 52 24
M  V30 56 1 53 24
M  V30 57 1 54 25
M  V30 58 1 55 25
M  V30 59 1 56 25
M  V30 60 1 57 27
M  V30 61 1 28 58 CFG=3
M  V30 62 1 59 29
M  V30 63 1 60 30
M  V30 64 1 61 31
M  V30 65 1 62 31
M  V30 66 1 63 32
M  V30 67 1 64 32
M  V30 68 1 6 65 CFG=3
M  V30 END BOND
M  V30 END CTAB
M  END
>  <i_epik_Tot_Q>  (1) 
1

>  <i_epik_Tot_abs_Q>  (1) 
1

>  <i_i_glide_confnum>  (1) 
15

>  <i_i_glide_lignum>  (1) 
10

>  <i_i_glide_posenum>  (1) 
306

>  <i_i_glide_rotatable_bonds>  (1) 
5

>  <i_lp_mmshare_version>  (1) 
72125

>  <i_m_source_file_index>  (1) 
7

>  <i_f3d_flags>  (1) 
0

>  <num_sample>  (1) 
100

>  <b_lp_Chiralities_Consistent>  (1) 
1

>  <r_epik_Charging_Adjusted_Penalty>  (1) 
2.2946868864184928

>  <r_epik_Ionization_Penalty>  (1) 
1.147343534253078

>  <r_epik_Ionization_Penalty_Charging>  (1) 
1.1473434712357071

>  <r_epik_Ionization_Penalty_Neutral>  (1) 
6.301737089438289e-08

>  <r_epik_State_Penalty>  (1) 
1.1473434151827855

>  <r_glide_ring_energy>  (1) 
0.066861304234087426

>  <r_i_docking_score>  (1) 
-2.4676167777168168

>  <r_i_glide_ecoul>  (1) 
-2.656798430193767

>  <r_i_glide_eff_state_penalty>  (1) 
1.1473434151827855

>  <r_i_glide_einternal>  (1) 
9.0504157919166772

>  <r_i_glide_emodel>  (1) 
-25.260749802489695

>  <r_i_glide_emodel_strain>  (1) 
0.26127674998883776

>  <r_i_glide_energy>  (1) 
-24.698570174207148

>  <r_i_glide_erotb>  (1) 
0.17835229215497114

>  <r_i_glide_esite>  (1) 
-0.099445432125396693

>  <r_i_glide_evdw>  (1) 
-22.041771744013381

>  <r_i_glide_gscore>  (1) 
-3.614960192899602

>  <r_i_glide_gscore_strain>  (1) 
0

>  <r_i_glide_hbond>  (1) 
0

>  <r_i_glide_ligand_efficiency>  (1) 
-0.074776265991418692

>  <r_i_glide_ligand_efficiency_ln>  (1) 
-0.54878519472833587

>  <r_i_glide_ligand_efficiency_sa>  (1) 
-0.23984744023637486

>  <r_i_glide_lipo>  (1) 
-1.2984907096509481

>  <r_i_glide_metal>  (1) 
-0

>  <r_i_glide_rewards>  (1) 
-0.89476799154849407

>  <r_lp_Energy>  (1) 
64.529619999999994

>  <s_epik_Chemistry_Notes>  (1) 
This compound has an imine and may undergo hydrolysis.

>  <s_epik_cmdline>  (1) 
J2VwaWtfcHl0aG9uJywgJy1waHQnLCAnMS4wJywgJy1waCcsICc3LjQnLCAnLXRuJywgJzgnLCAnLW1hJywgJzUwMCcsICctaW1hZScsICc8aW5maWxlLm1hZT4nLCAnLW9tYWUnLCAnPG91dGZpbGUubWFlPic=

>  <s_epik_input>  (1) 
W0NIMl0xW0NIXT1bQ0hdW0NIXT1DKEMoRikoRilGKVtDSF09QzFOMltDSDJdW0NIMl1bQ0BIXShbQ0gzXSlbQ0BASF0oW0NASF0yW0NIM10pTjNbQ0gyXVtDQEBIXShbQ0BIXTM0KU4oW0NIMl1GKUMoW0NIXShGKUYpPVtDSF1bQ0gyXVtDSDJdNA==

>  <s_glide_docking_method>  (1) 
confgen

>  <s_i_glide_gridfile>  (1) 
gpcr_drd2_6luq_protein_autoprepared_prepared

>  <s_lp_Force_Field>  (1) 
S-OPLS

>  <s_lp_Variant>  (1) 
DiffSBDD_6_num_sample_100-2

>  <s_m_source_file>  (1) 
generated__ligand_DiffSBDD_2026-05-06_prepared.sdf

>  <GenAI_Model>  (1) 
DiffSBDD

>  <Protein>  (1) 
generic_title2

$$$$
DiffSBDD_92_num_sample_100
     RDKit          3D

  0  0  0  0  0  0  0  0  0  0999 V3000
M  V30 BEGIN CTAB
M  V30 COUNTS 66 68 0 0 1
M  V30 BEGIN ATOM
M  V30 1 F -2.530998 19.862663 1.547942 0
M  V30 2 C -1.574035 18.076948 -3.874308 0 CFG=1
M  V30 3 C -0.397888 22.862555 -6.022768 0
M  V30 4 C 1.121530 20.365145 1.400639 0
M  V30 5 S -3.131652 17.230684 -6.427844 0
M  V30 6 F -2.417160 21.045535 -6.132670 0
M  V30 7 C -1.261971 20.148867 1.925670 0
M  V30 8 C 1.434229 18.291722 -7.051437 0
M  V30 9 C -0.494271 19.640792 -0.463278 0 CFG=2
M  V30 10 C 0.133869 22.451411 -8.416860 0
M  V30 11 S -2.623140 19.417972 -3.220165 0
M  V30 12 C 0.381535 19.330814 -7.499976 0 CFG=1
M  V30 13 C -1.748193 18.193899 -6.358959 0
M  V30 14 N -1.099930 18.509915 -5.198636 0
M  V30 15 C -1.076194 17.769259 -8.783620 0
M  V30 16 C -0.998586 20.536461 3.253785 0
M  V30 17 C -1.927812 20.035620 -8.198284 0 CFG=1
M  V30 18 C -1.423221 20.684605 -2.706247 0
M  V30 19 C 1.372702 20.754911 2.730850 0
M  V30 20 C -0.680864 17.246914 -1.555403 0
M  V30 21 C -0.203422 20.059372 0.988680 0
M  V30 22 C -1.854762 21.294434 -7.316509 0 CFG=2
M  V30 23 C -1.104509 18.816224 -7.651493 0 CFG=2
M  V30 24 C 0.315999 20.839216 3.654873 0
M  V30 25 O 2.158943 20.287085 0.517003 0
M  V30 26 F 2.634864 21.049769 3.120482 0
M  V30 27 C -1.270597 20.778622 -1.176513 0
M  V30 28 C -0.399412 21.792041 -7.124071 0
M  V30 29 C -0.362523 17.739022 -2.983605 0
M  V30 30 C -1.217958 18.266623 -0.526393 0
M  V30 31 O -3.280513 19.769307 -8.523844 0
M  V30 32 C 0.533291 20.637524 -6.691674 0
M  V30 33 H -2.181700 17.174825 -3.910491 0
M  V30 34 H -1.169179 23.596563 -6.227752 0
M  V30 35 H -0.620023 22.441871 -5.042356 0
M  V30 36 H 0.566724 23.363653 -5.946825 0
M  V30 37 H 1.307875 17.980743 -6.016139 0
M  V30 38 H 1.423478 17.397411 -7.673311 0
M  V30 39 H 2.437664 18.710791 -7.127551 0
M  V30 40 H 0.456482 19.533742 -0.977524 0
M  V30 41 H -0.512739 23.267275 -8.741889 0
M  V30 42 H 1.129167 22.871583 -8.264115 0
M  V30 43 H 0.212987 21.750880 -9.246556 0
M  V30 44 H 0.701211 19.601442 -8.505491 0
M  V30 45 H -0.277319 19.090330 -5.248133 0
M  V30 46 H -0.494345 18.106551 -9.641622 0
M  V30 47 H -0.638122 16.828492 -8.448594 0
M  V30 48 H -2.070847 17.539068 -9.167227 0
M  V30 49 H -1.807911 20.602740 3.965957 0
M  V30 50 H -1.500431 20.303738 -9.164198 0
M  V30 51 H -1.822131 21.635125 -3.060231 0
M  V30 52 H -0.464624 20.569039 -3.209103 0
M  V30 53 H -1.371524 16.404737 -1.610897 0
M  V30 54 H 0.234908 16.831042 -1.141351 0
M  V30 55 H -2.458195 22.088355 -7.759947 0
M  V30 56 H 0.514240 21.137913 4.673710 0
M  V30 57 H 2.983750 20.509947 0.925032 0
M  V30 58 H -2.257963 20.900600 -0.729792 0
M  V30 59 H -0.742897 21.711650 -0.972653 0
M  V30 60 H 0.176403 16.929886 -3.478940 0
M  V30 61 H 0.357371 18.554129 -2.959783 0
M  V30 62 H -1.127844 17.772001 0.441920 0
M  V30 63 H -2.291762 18.406700 -0.646702 0
M  V30 64 H -3.714794 19.446656 -7.746371 0
M  V30 65 H 0.392617 20.443791 -5.631558 0
M  V30 66 H 1.568136 20.975553 -6.765168 0
M  V30 END ATOM
M  V30 BEGIN BOND
M  V30 1 1 7 1
M  V30 2 1 11 2
M  V30 3 1 12 8
M  V30 4 2 13 5
M  V30 5 1 14 2
M  V30 6 1 14 13
M  V30 7 1 16 7
M  V30 8 1 18 11
M  V30 9 2 19 4
M  V30 10 1 21 4
M  V30 11 2 21 7
M  V30 12 1 21 9
M  V30 13 1 22 6
M  V30 14 1 22 17
M  V30 15 1 23 12
M  V30 16 1 23 13
M  V30 17 1 23 15 CFG=3
M  V30 18 1 23 17
M  V30 19 2 24 16
M  V30 20 1 24 19
M  V30 21 1 25 4
M  V30 22 1 26 19
M  V30 23 1 27 9
M  V30 24 1 27 18
M  V30 25 1 28 3
M  V30 26 1 28 10
M  V30 27 1 28 22
M  V30 28 1 29 2
M  V30 29 1 29 20
M  V30 30 1 30 9
M  V30 31 1 30 20
M  V30 32 1 31 17
M  V30 33 1 32 12
M  V30 34 1 32 28
M  V30 35 1 2 33 CFG=3
M  V30 36 1 34 3
M  V30 37 1 35 3
M  V30 38 1 36 3
M  V30 39 1 37 8
M  V30 40 1 38 8
M  V30 41 1 39 8
M  V30 42 1 9 40 CFG=3
M  V30 43 1 41 10
M  V30 44 1 42 10
M  V30 45 1 43 10
M  V30 46 1 12 44 CFG=3
M  V30 47 1 45 14
M  V30 48 1 46 15
M  V30 49 1 47 15
M  V30 50 1 48 15
M  V30 51 1 49 16
M  V30 52 1 17 50 CFG=3
M  V30 53 1 51 18
M  V30 54 1 52 18
M  V30 55 1 53 20
M  V30 56 1 54 20
M  V30 57 1 22 55 CFG=3
M  V30 58 1 56 24
M  V30 59 1 57 25
M  V30 60 1 58 27
M  V30 61 1 59 27
M  V30 62 1 60 29
M  V30 63 1 61 29
M  V30 64 1 62 30
M  V30 65 1 63 30
M  V30 66 1 64 31
M  V30 67 1 65 32
M  V30 68 1 66 32
M  V30 END BOND
M  V30 END CTAB
M  END
>  <i_epik_Tot_Q>  (1) 
0

>  <i_epik_Tot_abs_Q>  (1) 
0

>  <i_i_glide_confnum>  (1) 
89

>  <i_i_glide_lignum>  (1) 
186

>  <i_i_glide_posenum>  (1) 
196

>  <i_i_glide_rotatable_bonds>  (1) 
6

>  <i_lp_mmshare_version>  (1) 
72125

>  <i_m_source_file_index>  (1) 
93

>  <i_f3d_flags>  (1) 
0

>  <num_sample>  (1) 
100

>  <b_lp_Chiralities_Consistent>  (1) 
1

>  <r_epik_Charging_Adjusted_Penalty>  (1) 
0.13644680827592012

>  <r_epik_Ionization_Penalty>  (1) 
0.1364473086823538

>  <r_epik_Ionization_Penalty_Charging>  (1) 
0

>  <r_epik_Ionization_Penalty_Neutral>  (1) 
0.1364473086823538

>  <r_epik_State_Penalty>  (1) 
0.13644680827592012

>  <r_glide_ring_energy>  (1) 
0.24726830538804337

>  <r_i_docking_score>  (1) 
-2.464966908490045

>  <r_i_glide_ecoul>  (1) 
-0.36571357983509101

>  <r_i_glide_eff_state_penalty>  (1) 
0.13644680827592012

>  <r_i_glide_einternal>  (1) 
4.1083158526997927

>  <r_i_glide_emodel>  (1) 
-27.248795993771203

>  <r_i_glide_emodel_strain>  (1) 
0

>  <r_i_glide_energy>  (1) 
-24.524104240177834

>  <r_i_glide_erotb>  (1) 
0.33940478494589921

>  <r_i_glide_esite>  (1) 
0

>  <r_i_glide_evdw>  (1) 
-24.158390660342743

>  <r_i_glide_gscore>  (1) 
-2.6014137167659652

>  <r_i_glide_gscore_strain>  (1) 
0

>  <r_i_glide_hbond>  (1) 
0

>  <r_i_glide_ligand_efficiency>  (1) 
-0.077030215890313905

>  <r_i_glide_ligand_efficiency_ln>  (1) 
-0.55197328327111117

>  <r_i_glide_ligand_efficiency_sa>  (1) 
-0.24455569147524364

>  <r_i_glide_lipo>  (1) 
-1.4020952745939192

>  <r_i_glide_metal>  (1) 
-0

>  <r_i_glide_rewards>  (1) 
-0.27594665712554456

>  <r_lp_Energy>  (1) 
81.464282999999995

>  <r_lp_tautomer_probability>  (1) 
0.99999999999736477

>  <s_epik_Chemistry_Notes>  (1) 
This compound contains an acetal/aminal-like group ( X-CH(R)-Y where X, Y are N, S, or O) that may be acid/base labile, releasing an aldehyde.

>  <s_epik_cmdline>  (1) 
J2VwaWtfcHl0aG9uJywgJy1waHQnLCAnMS4wJywgJy1waCcsICc3LjQnLCAnLXRuJywgJzgnLCAnLW1hJywgJzUwMCcsICctaW1hZScsICc8aW5maWxlLm1hZT4nLCAnLW9tYWUnLCAnPG91dGZpbGUubWFlPic=

>  <s_epik_input>  (1) 
W09IXWMxYyhGKVtjSF1bY0hdYyhGKWMxW0NAQEhdKFtDSDJdW0NIMl1bQ0gyXTIpW0NIMl1bQ0gyXVNbQ0BIXTJbTkhdQyg9UylbQ0BdMyhbQ0gzXSlbQ0BIXShbQ0gzXSlbQ0gyXUMoW0NIM10pKFtDSDNdKVtDQEhdKEYpW0NAQEhdM1tPSF0=

>  <s_glide_docking_method>  (1) 
confgen

>  <s_i_glide_gridfile>  (1) 
gpcr_drd2_6luq_protein_autoprepared_prepared

>  <s_lp_Force_Field>  (1) 
S-OPLS

>  <s_lp_Variant>  (1) 
DiffSBDD_92_num_sample_100-1

>  <s_m_source_file>  (1) 
generated__ligand_DiffSBDD_2026-05-06_prepared.sdf

>  <GenAI_Model>  (1) 
DiffSBDD

>  <Protein>  (1) 
generic_title2

$$$$
DiffSBDD_52_num_sample_100
     RDKit          3D

  0  0  0  0  0  0  0  0  0  0999 V3000
M  V30 BEGIN CTAB
M  V30 COUNTS 53 55 0 0 1
M  V30 BEGIN ATOM
M  V30 1 C 8.915396 7.163971 -12.151067 0
M  V30 2 N 7.429752 5.461705 -19.178331 0
M  V30 3 C 8.895570 3.369282 -12.691673 0
M  V30 4 C 6.216609 5.486327 -18.347921 0
M  V30 5 N 9.034840 7.239051 -10.691667 0 CHG=1
M  V30 6 N 7.440035 2.033301 -15.541688 0
M  V30 7 O 9.567748 4.795466 -19.643038 0
M  V30 8 C 5.623352 6.854098 -18.680372 0 CFG=2
M  V30 9 C 5.875209 8.537375 -20.626650 0
M  V30 10 C 8.493332 4.563067 -19.078025 0
M  V30 11 N 8.169007 -0.210314 -15.767209 0
M  V30 12 C 9.239995 4.646501 -12.211841 0
M  V30 13 C 7.834832 3.219950 -13.609508 0
M  V30 14 C 4.149777 6.987529 -18.291581 0
M  V30 15 C 6.029157 7.077611 -20.157281 0
M  V30 16 N 9.560942 0.032659 -17.649388 0
M  V30 17 C 7.499224 6.593588 -20.102651 0
M  V30 18 C 7.437377 5.632577 -13.532499 0
M  V30 19 C 8.990700 1.180271 -17.375129 0
M  V30 20 C 9.296713 2.465955 -18.181496 0
M  V30 21 C 8.167576 1.017460 -16.203053 0
M  V30 22 O 7.530583 1.973790 -14.111049 0
M  V30 23 C 8.517654 5.782194 -12.637999 0
M  V30 24 O 9.022498 -0.865629 -16.691636 0
M  V30 25 C 7.095290 4.355649 -14.017721 0
M  V30 26 O 7.017659 3.050997 -17.915017 0 CHG=-1
M  V30 27 N 8.239744 3.368336 -18.346066 0
M  V30 28 O 10.417316 2.632931 -18.674996 0
M  V30 29 C 5.226827 6.185276 -21.135967 0
M  V30 30 H 9.883906 7.408866 -12.586945 0
M  V30 31 H 8.209365 7.923201 -12.491535 0
M  V30 32 H 9.457818 2.503587 -12.371785 0
M  V30 33 H 5.496008 4.728794 -18.659063 0
M  V30 34 H 6.417962 5.406714 -17.277981 0
M  V30 35 H 9.593973 8.036192 -10.432130 0
M  V30 36 H 8.106916 7.369277 -10.252614 0
M  V30 37 H 6.160111 7.586256 -18.078299 0
M  V30 38 H 6.234860 9.251714 -19.891666 0
M  V30 39 H 6.417420 8.711693 -21.556686 0
M  V30 40 H 4.827993 8.781094 -20.805587 0
M  V30 41 H 10.066182 4.755001 -11.526842 0
M  V30 42 H 3.558205 6.169388 -18.691665 0
M  V30 43 H 4.031010 6.962142 -17.208165 0
M  V30 44 H 3.724956 7.925129 -18.648479 0
M  V30 45 H 8.160972 7.358659 -19.693634 0
M  V30 46 H 7.872740 6.308516 -21.088013 0
M  V30 47 H 6.879577 6.498546 -13.858231 0
M  V30 48 H 6.275680 4.246844 -14.713421 0
M  V30 49 H 5.306569 5.122912 -20.905907 0
M  V30 50 H 4.169394 6.440424 -21.133826 0
M  V30 51 H 5.584759 6.314846 -22.158070 0
M  V30 52 H 9.450694 6.396270 -10.328105 0
M  V30 53 H 7.598344 2.987174 -15.843618 0
M  V30 END ATOM
M  V30 BEGIN BOND
M  V30 1 1 4 2
M  V30 2 1 5 1
M  V30 3 1 8 4
M  V30 4 1 10 2
M  V30 5 2 10 7
M  V30 6 2 12 3
M  V30 7 1 13 3
M  V30 8 1 14 8
M  V30 9 1 15 8
M  V30 10 1 15 9
M  V30 11 1 17 2
M  V30 12 1 17 15
M  V30 13 2 19 16
M  V30 14 1 20 19
M  V30 15 1 21 6
M  V30 16 2 21 11
M  V30 17 1 21 19
M  V30 18 1 22 6
M  V30 19 1 22 13
M  V30 20 1 23 1
M  V30 21 1 23 12
M  V30 22 2 23 18
M  V30 23 1 24 11
M  V30 24 1 24 16
M  V30 25 2 25 13
M  V30 26 1 25 18
M  V30 27 1 27 10
M  V30 28 1 27 20
M  V30 29 1 27 26
M  V30 30 2 28 20
M  V30 31 1 29 15
M  V30 32 1 30 1
M  V30 33 1 31 1
M  V30 34 1 32 3
M  V30 35 1 33 4
M  V30 36 1 34 4
M  V30 37 1 35 5
M  V30 38 1 36 5
M  V30 39 1 8 37 CFG=1
M  V30 40 1 38 9
M  V30 41 1 39 9
M  V30 42 1 40 9
M  V30 43 1 41 12
M  V30 44 1 42 14
M  V30 45 1 43 14
M  V30 46 1 44 14
M  V30 47 1 45 17
M  V30 48 1 46 17
M  V30 49 1 47 18
M  V30 50 1 48 25
M  V30 51 1 49 29
M  V30 52 1 50 29
M  V30 53 1 51 29
M  V30 54 1 52 5
M  V30 55 1 53 6
M  V30 END BOND
M  V30 END CTAB
M  END
>  <i_epik_Tot_Q>  (1) 
0

>  <i_epik_Tot_abs_Q>  (1) 
2

>  <i_i_glide_confnum>  (1) 
4

>  <i_i_glide_lignum>  (1) 
98

>  <i_i_glide_posenum>  (1) 
221

>  <i_i_glide_rotatable_bonds>  (1) 
8

>  <i_lp_mmshare_version>  (1) 
72125

>  <i_m_source_file_index>  (1) 
53

>  <i_f3d_flags>  (1) 
0

>  <num_sample>  (1) 
100

>  <b_lp_Chiralities_Consistent>  (1) 
1

>  <r_epik_Charging_Adjusted_Penalty>  (1) 
0.77952941266153319

>  <r_epik_Ionization_Penalty>  (1) 
0.7795476472939552

>  <r_epik_Ionization_Penalty_Charging>  (1) 
0.080812989066233118

>  <r_epik_Ionization_Penalty_Neutral>  (1) 
0.69873465822772207

>  <r_epik_State_Penalty>  (1) 
0.69871642359530006

>  <r_glide_ring_energy>  (1) 
0

>  <r_i_docking_score>  (1) 
-2.4576262524538821

>  <r_i_glide_ecoul>  (1) 
-5.4624459891054515

>  <r_i_glide_eff_state_penalty>  (1) 
0.69871642359530006

>  <r_i_glide_einternal>  (1) 
5.6264438640431109

>  <r_i_glide_emodel>  (1) 
-37.23018582564967

>  <r_i_glide_emodel_strain>  (1) 
1.982596250066706

>  <r_i_glide_energy>  (1) 
-33.392755030097064

>  <r_i_glide_erotb>  (1) 
0.84066204516479937

>  <r_i_glide_esite>  (1) 
-0.14841450997188207

>  <r_i_glide_evdw>  (1) 
-27.930309040991609

>  <r_i_glide_gscore>  (1) 
-3.156342676049182

>  <r_i_glide_gscore_strain>  (1) 
0

>  <r_i_glide_hbond>  (1) 
-0.1954130480082566

>  <r_i_glide_ligand_efficiency>  (1) 
-0.084745732843237317

>  <r_i_glide_ligand_efficiency_ln>  (1) 
-0.56273409178729561

>  <r_i_glide_ligand_efficiency_sa>  (1) 
-0.26036574091935577

>  <r_i_glide_lipo>  (1) 
-1.943082089753523

>  <r_i_glide_metal>  (1) 
-0

>  <r_i_glide_rewards>  (1) 
0.50578727693507874

>  <r_lp_Energy>  (1) 
48.879171999999997

>  <s_epik_Chemistry_Notes>  (1) 
This compound has a N-S or N-O group and may undergo hydrolysis at high or low pH.

>  <s_epik_cmdline>  (1) 
J2VwaWtfcHl0aG9uJywgJy1waHQnLCAnMS4wJywgJy1waCcsICc3LjQnLCAnLXRuJywgJzgnLCAnLW1hJywgJzUwMCcsICctaW1hZScsICc8aW5maWxlLm1hZT4nLCAnLW9tYWUnLCAnPG91dGZpbGUubWFlPic=

>  <s_epik_input>  (1) 
W05IMl1bQ0gyXWMoW2NIXVtjSF0xKVtjSF1bY0hdYzFPL049YzIvW25IXW9uYzJDKD1PKU4oW09IXSlDKD1PKU4oW0NIMl0zKVtDSDJdW0NASF0oW0NIM10pQzMoW0NIM10pW0NIM10=

>  <s_glide_docking_method>  (1) 
confgen

>  <s_i_glide_gridfile>  (1) 
gpcr_drd2_6luq_protein_autoprepared_prepared

>  <s_lp_Force_Field>  (1) 
S-OPLS

>  <s_lp_Variant>  (1) 
DiffSBDD_52_num_sample_100-2

>  <s_m_source_file>  (1) 
generated__ligand_DiffSBDD_2026-05-06_prepared.sdf

>  <GenAI_Model>  (1) 
DiffSBDD

>  <Protein>  (1) 
generic_title2

$$$$
DiffSBDD_59_num_sample_100
     RDKit          3D

  0  0  0  0  0  0  0  0  0  0999 V3000
M  V30 BEGIN CTAB
M  V30 COUNTS 73 76 0 0 1
M  V30 BEGIN ATOM
M  V30 1 C 6.176480 4.713826 -11.572030 0
M  V30 2 N 10.499412 3.830142 -17.915975 0
M  V30 3 C 11.400992 4.986812 -18.048411 0
M  V30 4 C 9.095100 4.222509 -17.647732 0 CFG=1
M  V30 5 C 8.633453 7.049642 -11.631568 0
M  V30 6 C 7.656136 4.685708 -12.002454 0 CFG=2
M  V30 7 C 11.833108 7.558006 -2.379944 0
M  V30 8 C 12.210034 9.420984 -5.787987 0
M  V30 9 C 9.179041 5.265986 -10.052289 0
M  V30 10 C 11.613817 8.566860 -4.845617 0
M  V30 11 O 5.888888 5.204012 -14.369148 0
M  V30 12 O 13.041060 7.802225 -3.087916 0
M  V30 13 C 10.692055 7.612053 -5.313911 0
M  V30 14 C 9.943977 6.169559 -9.294621 0
M  V30 15 C 12.869923 4.660660 -17.723744 0
M  V30 16 C 8.511546 5.693241 -11.216544 0
M  V30 17 C 11.068341 8.446209 -7.556350 0
M  V30 18 C 9.425256 7.942980 -10.879234 0
M  V30 19 N 11.946304 9.369369 -7.108920 0
M  V30 20 C 10.674142 2.918027 -19.061014 0
M  V30 21 N 7.564915 5.083976 -15.869892 0
M  V30 22 C 7.888479 7.567708 -12.851453 0
M  V30 23 C 8.490316 5.113120 -18.753600 0
M  V30 24 O 8.346797 3.022422 -17.570910 0
M  V30 25 N 10.814536 8.462413 -8.950259 0
M  V30 26 C 7.064043 4.959320 -14.624094 0
M  V30 27 C 10.059879 7.520880 -9.696218 0
M  V30 28 C 13.595292 3.927438 -18.831589 0
M  V30 29 C 10.399721 7.557954 -6.679446 0
M  V30 30 C 8.031943 4.491670 -13.504314 0
M  V30 31 C 11.778666 0.706095 -19.663216 0
M  V30 32 C 11.949412 8.675100 -3.392541 0 CFG=2
M  V30 33 C 11.930641 2.035757 -18.909052 0 CFG=1
M  V30 34 C 8.962257 4.810050 -16.220187 0
M  V30 35 C 13.180952 2.766206 -19.356009 0
M  V30 36 H 6.091236 4.561715 -10.495191 0
M  V30 37 H 5.698791 5.666644 -11.793139 0
M  V30 38 H 5.604320 3.920707 -12.054133 0
M  V30 39 H 11.315575 5.429628 -19.041331 0
M  V30 40 H 11.113205 5.772563 -17.356342 0
M  V30 41 H 7.984622 3.728707 -11.594421 0
M  V30 42 H 11.865636 7.826108 -1.329644 0
M  V30 43 H 11.332229 6.628251 -2.640911 0
M  V30 44 H 12.922669 10.169135 -5.473180 0
M  V30 45 H 9.102467 4.238087 -9.735096 0
M  V30 46 H 10.202515 6.939744 -4.628097 0
M  V30 47 H 10.460760 5.809882 -8.422600 0
M  V30 48 H 13.407671 5.592159 -17.550700 0
M  V30 49 H 12.944408 4.088653 -16.799912 0
M  V30 50 H 9.502298 8.967440 -11.191645 0
M  V30 51 H 9.832423 2.234848 -19.151087 0
M  V30 52 H 10.693704 3.476184 -19.998333 0
M  V30 53 H 6.950194 5.388774 -16.609786 0
M  V30 54 H 8.005744 8.648395 -12.926067 0
M  V30 55 H 8.235005 7.150781 -13.786688 0
M  V30 56 H 6.820033 7.380032 -12.761056 0
M  V30 57 H 8.997658 6.073253 -18.823162 0
M  V30 58 H 8.552326 4.633031 -19.730174 0
M  V30 59 H 7.437072 5.320156 -18.570650 0
M  V30 60 H 7.746874 3.102062 -16.844833 0
M  V30 61 H 11.143713 9.274070 -9.449500 0
M  V30 62 H 14.498572 4.388030 -19.205055 0
M  V30 63 H 9.662615 6.864596 -7.030798 0
M  V30 64 H 8.169898 3.423230 -13.676069 0
M  V30 65 H 9.017968 4.937943 -13.632167 0
M  V30 66 H 12.655880 0.074846 -19.522010 0
M  V30 67 H 10.913616 0.147046 -19.304172 0
M  V30 68 H 11.648947 0.869179 -20.733664 0
M  V30 69 H 12.081187 9.701105 -3.050743 0
M  V30 70 H 12.058425 1.788184 -17.853414 0
M  V30 71 H 9.435397 4.103044 -15.545965 0
M  V30 72 H 9.491384 5.755145 -16.109396 0
M  V30 73 H 13.755190 2.305940 -20.147034 0
M  V30 END ATOM
M  V30 BEGIN BOND
M  V30 1 1 3 2
M  V30 2 1 4 2
M  V30 3 1 6 1
M  V30 4 2 10 8
M  V30 5 1 12 7
M  V30 6 1 13 10
M  V30 7 2 14 9
M  V30 8 1 15 3
M  V30 9 2 16 5
M  V30 10 1 16 6
M  V30 11 1 16 9
M  V30 12 1 18 5
M  V30 13 1 19 8
M  V30 14 2 19 17
M  V30 15 1 20 2
M  V30 16 1 22 5
M  V30 17 1 23 4
M  V30 18 1 4 24 CFG=1
M  V30 19 1 25 17
M  V30 20 2 26 11
M  V30 21 1 26 21
M  V30 22 1 27 14
M  V30 23 2 27 18
M  V30 24 1 27 25
M  V30 25 1 28 15
M  V30 26 2 29 13
M  V30 27 1 29 17
M  V30 28 1 30 6
M  V30 29 1 30 26
M  V30 30 1 32 7
M  V30 31 1 32 10
M  V30 32 1 32 12
M  V30 33 1 33 20
M  V30 34 1 33 31
M  V30 35 1 34 4
M  V30 36 1 34 21
M  V30 37 2 35 28
M  V30 38 1 35 33
M  V30 39 1 36 1
M  V30 40 1 37 1
M  V30 41 1 38 1
M  V30 42 1 39 3
M  V30 43 1 40 3
M  V30 44 1 6 41 CFG=1
M  V30 45 1 42 7
M  V30 46 1 43 7
M  V30 47 1 44 8
M  V30 48 1 45 9
M  V30 49 1 46 13
M  V30 50 1 47 14
M  V30 51 1 48 15
M  V30 52 1 49 15
M  V30 53 1 50 18
M  V30 54 1 51 20
M  V30 55 1 52 20
M  V30 56 1 53 21
M  V30 57 1 54 22
M  V30 58 1 55 22
M  V30 59 1 56 22
M  V30 60 1 57 23
M  V30 61 1 58 23
M  V30 62 1 59 23
M  V30 63 1 60 24
M  V30 64 1 61 25
M  V30 65 1 62 28
M  V30 66 1 63 29
M  V30 67 1 64 30
M  V30 68 1 65 30
M  V30 69 1 66 31
M  V30 70 1 67 31
M  V30 71 1 68 31
M  V30 72 1 32 69 CFG=1
M  V30 73 1 33 70 CFG=1
M  V30 74 1 71 34
M  V30 75 1 72 34
M  V30 76 1 73 35
M  V30 END BOND
M  V30 END CTAB
M  END
>  <i_epik_Tot_Q>  (1) 
0

>  <i_epik_Tot_abs_Q>  (1) 
0

>  <i_i_glide_confnum>  (1) 
788

>  <i_i_glide_lignum>  (1) 
117

>  <i_i_glide_posenum>  (1) 
341

>  <i_i_glide_rotatable_bonds>  (1) 
11

>  <i_lp_mmshare_version>  (1) 
72125

>  <i_m_source_file_index>  (1) 
60

>  <i_f3d_flags>  (1) 
0

>  <num_sample>  (1) 
100

>  <b_lp_Chiralities_Consistent>  (1) 
1

>  <r_epik_Charging_Adjusted_Penalty>  (1) 
0.21966515356122782

>  <r_epik_Ionization_Penalty>  (1) 
0.22519441393607559

>  <r_epik_Ionization_Penalty_Charging>  (1) 
0

>  <r_epik_Ionization_Penalty_Neutral>  (1) 
0.22519441393607559

>  <r_epik_State_Penalty>  (1) 
0.21966515356122782

>  <r_glide_ring_energy>  (1) 
0

>  <r_i_docking_score>  (1) 
-2.4371009656992637

>  <r_i_glide_ecoul>  (1) 
-0.21084312820373086

>  <r_i_glide_eff_state_penalty>  (1) 
0.21966515356122782

>  <r_i_glide_einternal>  (1) 
16.789086827572689

>  <r_i_glide_emodel>  (1) 
-32.406732907958151

>  <r_i_glide_emodel_strain>  (1) 
0.57162294761614874

>  <r_i_glide_energy>  (1) 
-37.112144304008538

>  <r_i_glide_erotb>  (1) 
0.88460327515387938

>  <r_i_glide_esite>  (1) 
0

>  <r_i_glide_evdw>  (1) 
-36.901301175804804

>  <r_i_glide_gscore>  (1) 
-2.6567661192604914

>  <r_i_glide_gscore_strain>  (1) 
0

>  <r_i_glide_hbond>  (1) 
0

>  <r_i_glide_ligand_efficiency>  (1) 
-0.0696314561628361

>  <r_i_glide_ligand_efficiency_ln>  (1) 
-0.53499775051270859

>  <r_i_glide_ligand_efficiency_sa>  (1) 
-0.22776911038362688

>  <r_i_glide_lipo>  (1) 
-2.0623104739263489

>  <r_i_glide_metal>  (1) 
-0

>  <r_i_glide_rewards>  (1) 
0.39763260753277763

>  <r_lp_Energy>  (1) 
28.775382

>  <r_lp_tautomer_probability>  (1) 
0.99999977220005165

>  <s_epik_cmdline>  (1) 
J2VwaWtfcHl0aG9uJywgJy1waHQnLCAnMS4wJywgJy1waCcsICc3LjQnLCAnLXRuJywgJzgnLCAnLW1hJywgJzUwMCcsICctaW1hZScsICc8aW5maWxlLm1hZT4nLCAnLW9tYWUnLCAnPG91dGZpbGUubWFlPic=

>  <s_epik_input>  (1) 
W0NIMl0xW0NAQEhdKFtDSDNdKVtDSF09W0NIXVtDSDJdW0NIMl1OMVtDQEBdKFtDSDNdKShbT0hdKVtDSDJdW05IXUMoPU8pW0NIMl1bQ0BIXShbQ0gzXSljKGMyW0NIM10pW2NIXVtjSF1jKFtjSF0yKVtOSF1jKFtjSF1bY0hdMyluW2NIXWMzW0NASF00W0NIMl1PNA==

>  <s_glide_docking_method>  (1) 
confgen

>  <s_i_glide_gridfile>  (1) 
gpcr_drd2_6luq_protein_autoprepared_prepared

>  <s_lp_Force_Field>  (1) 
S-OPLS

>  <s_lp_Variant>  (1) 
DiffSBDD_59_num_sample_100-1

>  <s_m_source_file>  (1) 
generated__ligand_DiffSBDD_2026-05-06_prepared.sdf

>  <GenAI_Model>  (1) 
DiffSBDD

>  <Protein>  (1) 
generic_title2

$$$$
DiffSBDD_67_num_sample_100
     RDKit          3D

  0  0  0  0  0  0  0  0  0  0999 V3000
M  V30 BEGIN CTAB
M  V30 COUNTS 79 83 0 0 1
M  V30 BEGIN ATOM
M  V30 1 C 9.776688 6.367512 -9.664169 0 CFG=2
M  V30 2 C 11.932619 7.798133 -8.882120 0 CFG=1
M  V30 3 C 12.636979 8.965787 -9.548521 0
M  V30 4 C 12.083498 7.836424 -7.317728 0 CFG=1
M  V30 5 C 7.556325 6.425331 -13.483925 0
M  V30 6 C 9.537043 5.830246 -12.027349 0
M  V30 7 C 6.916234 7.379921 -20.350115 0
M  V30 8 C 5.847174 5.208619 -20.029518 0
M  V30 9 C 9.790941 7.862345 -6.155738 0 CFG=2
M  V30 10 C 8.672947 4.948041 -18.452424 0
M  V30 11 C 6.967200 6.574768 -14.901282 0
M  V30 12 C 6.175412 7.570917 -21.528436 0
M  V30 13 C 6.596171 5.713053 -17.120891 0
M  V30 14 O 9.629961 5.016764 -17.650158 0 CHG=-1
M  V30 15 F 4.236443 4.453790 -21.626603 0
M  V30 16 C 7.981882 3.489807 -14.573857 0
M  V30 17 O 8.542660 4.096137 -19.362997 0
M  V30 18 C 11.038782 8.693442 -6.539956 0
M  V30 19 C 9.580696 6.703097 -7.095959 0 CFG=2
M  V30 20 C 6.756465 6.201486 -19.594415 0
M  V30 21 C 10.736379 5.770168 -6.830274 0
M  V30 22 N 8.246745 3.999115 -13.213765 0 CFG=2 CHG=1
M  V30 23 C 6.821370 4.182719 -15.266971 0
M  V30 24 N 7.231233 5.470844 -15.818250 0
M  V30 25 C 12.052265 6.452230 -6.617484 0
M  V30 26 C 8.718917 5.418852 -13.260219 0 CFG=1
M  V30 27 C 7.720099 5.140342 -10.218028 0
M  V30 28 C 7.553960 6.010644 -18.298530 0 CFG=2
M  V30 29 O 8.632805 8.569735 -6.291190 0
M  V30 30 C 9.434535 7.211460 -8.509316 0 CFG=1
M  V30 31 C 10.524886 7.681021 -9.422431 0 CFG=2
M  V30 32 O 6.335154 8.717009 -22.254440 0
M  V30 33 C 5.268951 6.581517 -21.959726 0
M  V30 34 C 9.113902 3.033588 -12.472281 0
M  V30 35 C 5.106438 5.400710 -21.211253 0
M  V30 36 C 8.758880 6.159181 -10.740202 0 CFG=1
M  V30 37 H 10.259288 5.433897 -9.436511 0
M  V30 38 H 12.467808 6.969511 -9.308770 0
M  V30 39 H 12.162488 9.914044 -9.300243 0
M  V30 40 H 13.679110 8.968585 -9.225371 0
M  V30 41 H 12.638408 8.866622 -10.635350 0
M  V30 42 H 13.034820 8.324397 -7.128156 0
M  V30 43 H 7.894787 7.424275 -13.200357 0
M  V30 44 H 6.740210 6.210660 -12.797089 0
M  V30 45 H 10.335951 5.118872 -11.835236 0
M  V30 46 H 10.079811 6.738345 -12.298170 0
M  V30 47 H 7.605967 8.142188 -20.023394 0
M  V30 48 H 5.719358 4.301539 -19.460883 0
M  V30 49 H 5.909342 8.689833 -23.097806 0
M  V30 50 H 9.857027 7.498247 -5.131912 0
M  V30 51 H 7.355147 7.493098 -15.343929 0
M  V30 52 H 5.887305 6.724218 -14.808000 0
M  V30 53 H 5.842630 6.497305 -17.042107 0
M  V30 54 H 6.049013 4.840835 -17.441407 0
M  V30 55 H 8.862250 3.582156 -15.212385 0
M  V30 56 H 7.737027 2.426096 -14.520508 0
M  V30 57 H 11.494139 9.070687 -5.619840 0
M  V30 58 H 10.772653 9.582876 -7.091741 0
M  V30 59 H 8.657249 6.173815 -6.854474 0
M  V30 60 H 10.822349 4.969536 -7.542006 0
M  V30 61 H 10.505324 5.369301 -5.855108 0
M  V30 62 H 5.914912 4.233714 -14.659261 0
M  V30 63 H 6.635346 3.498552 -16.093389 0
M  V30 64 H 12.890828 5.767290 -6.693109 0
M  V30 65 H 12.081262 6.644141 -5.540895 0
M  V30 66 H 9.416363 5.503122 -14.096697 0
M  V30 67 H 8.175261 4.215004 -9.874446 0
M  V30 68 H 7.233506 5.544029 -9.330892 0
M  V30 69 H 6.932018 4.910064 -10.931912 0
M  V30 70 H 8.047933 6.958952 -18.127421 0
M  V30 71 H 7.935763 7.991882 -6.589707 0
M  V30 72 H 8.634936 7.920055 -8.589702 0
M  V30 73 H 10.255523 8.476893 -10.115054 0
M  V30 74 H 4.700486 6.727682 -22.863231 0
M  V30 75 H 10.172759 3.133846 -12.692068 0
M  V30 76 H 9.058161 3.161753 -11.401082 0
M  V30 77 H 8.838025 1.999767 -12.676230 0
M  V30 78 H 8.244742 7.102233 -10.916665 0
M  V30 79 H 7.367475 4.001859 -12.717632 0
M  V30 END ATOM
M  V30 BEGIN BOND
M  V30 1 1 3 2
M  V30 2 1 4 2
M  V30 3 1 11 5
M  V30 4 2 12 7
M  V30 5 1 14 10
M  V30 6 2 17 10
M  V30 7 1 18 4
M  V30 8 1 18 9
M  V30 9 1 19 9
M  V30 10 1 20 7
M  V30 11 2 20 8
M  V30 12 1 21 19
M  V30 13 1 22 16
M  V30 14 1 23 16
M  V30 15 1 24 11
M  V30 16 1 24 13
M  V30 17 1 24 23
M  V30 18 1 25 4
M  V30 19 1 25 21
M  V30 20 1 26 5
M  V30 21 1 26 6
M  V30 22 1 26 22
M  V30 23 1 28 10
M  V30 24 1 28 13
M  V30 25 1 28 20
M  V30 26 1 29 9
M  V30 27 1 30 1
M  V30 28 1 30 19
M  V30 29 1 31 1
M  V30 30 1 31 2
M  V30 31 1 31 30
M  V30 32 1 32 12
M  V30 33 1 33 12
M  V30 34 1 34 22
M  V30 35 1 35 8
M  V30 36 1 35 15
M  V30 37 2 35 33
M  V30 38 1 36 1
M  V30 39 1 36 6
M  V30 40 1 36 27
M  V30 41 1 1 37 CFG=1
M  V30 42 1 2 38 CFG=3
M  V30 43 1 39 3
M  V30 44 1 40 3
M  V30 45 1 41 3
M  V30 46 1 4 42 CFG=3
M  V30 47 1 43 5
M  V30 48 1 44 5
M  V30 49 1 45 6
M  V30 50 1 46 6
M  V30 51 1 47 7
M  V30 52 1 48 8
M  V30 53 1 49 32
M  V30 54 1 9 50 CFG=1
M  V30 55 1 51 11
M  V30 56 1 52 11
M  V30 57 1 53 13
M  V30 58 1 54 13
M  V30 59 1 55 16
M  V30 60 1 56 16
M  V30 61 1 57 18
M  V30 62 1 58 18
M  V30 63 1 19 59 CFG=1
M  V30 64 1 60 21
M  V30 65 1 61 21
M  V30 66 1 62 23
M  V30 67 1 63 23
M  V30 68 1 64 25
M  V30 69 1 65 25
M  V30 70 1 26 66 CFG=3
M  V30 71 1 67 27
M  V30 72 1 68 27
M  V30 73 1 69 27
M  V30 74 1 28 70 CFG=1
M  V30 75 1 71 29
M  V30 76 1 30 72 CFG=3
M  V30 77 1 31 73 CFG=3
M  V30 78 1 74 33
M  V30 79 1 75 34
M  V30 80 1 76 34
M  V30 81 1 77 34
M  V30 82 1 36 78 CFG=3
M  V30 83 1 22 79 CFG=1
M  V30 END BOND
M  V30 END CTAB
M  END
>  <i_epik_Tot_Q>  (1) 
0

>  <i_epik_Tot_abs_Q>  (1) 
2

>  <i_i_glide_confnum>  (1) 
628

>  <i_i_glide_lignum>  (1) 
136

>  <i_i_glide_posenum>  (1) 
40

>  <i_i_glide_rotatable_bonds>  (1) 
9

>  <i_lp_mmshare_version>  (1) 
72125

>  <i_m_source_file_index>  (1) 
68

>  <i_f3d_flags>  (1) 
0

>  <num_sample>  (1) 
100

>  <b_lp_Chiralities_Consistent>  (1) 
1

>  <r_epik_Charging_Adjusted_Penalty>  (1) 
1.0015811376701689

>  <r_epik_Ionization_Penalty>  (1) 
0.014205467742633596

>  <r_epik_Ionization_Penalty_Charging>  (1) 
0.0035901324651834211

>  <r_epik_Ionization_Penalty_Neutral>  (1) 
0.010615335277450176

>  <r_epik_State_Penalty>  (1) 
0.99799100520498552

>  <r_glide_ring_energy>  (1) 
0.19911974857502149

>  <r_i_docking_score>  (1) 
-2.430867756280835

>  <r_i_glide_ecoul>  (1) 
-5.056574502647301

>  <r_i_glide_eff_state_penalty>  (1) 
0.99799100520498552

>  <r_i_glide_einternal>  (1) 
29.300228469155204

>  <r_i_glide_emodel>  (1) 
9.0563483421659203

>  <r_i_glide_emodel_strain>  (1) 
5.4330661046670627

>  <r_i_glide_energy>  (1) 
-8.0942757360583908

>  <r_i_glide_erotb>  (1) 
0.48522832276191719

>  <r_i_glide_esite>  (1) 
0

>  <r_i_glide_evdw>  (1) 
-3.0377012334110893

>  <r_i_glide_gscore>  (1) 
-3.4288587614858206

>  <r_i_glide_gscore_strain>  (1) 
0.35826652616676569

>  <r_i_glide_hbond>  (1) 
-0.16200320579760086

>  <r_i_glide_ligand_efficiency>  (1) 
-0.067524104341134303

>  <r_i_glide_ligand_efficiency_ln>  (1) 
-0.53034966996332222

>  <r_i_glide_ligand_efficiency_sa>  (1) 
-0.22295968008119535

>  <r_i_glide_lipo>  (1) 
-2.0773361606163805

>  <r_i_glide_metal>  (1) 
-0

>  <r_i_glide_rewards>  (1) 
-1.1226430069328726

>  <r_lp_Energy>  (1) 
48.874657999999997

>  <s_epik_cmdline>  (1) 
J2VwaWtfcHl0aG9uJywgJy1waHQnLCAnMS4wJywgJy1waCcsICc3LjQnLCAnLXRuJywgJzgnLCAnLW1hJywgJzUwMCcsICctaW1hZScsICc8aW5maWxlLm1hZT4nLCAnLW9tYWUnLCAnPG91dGZpbGUubWFlPic=

>  <s_epik_input>  (1) 
W0NIM11bQ0BASF0oW0NAQEhdMTIpW0NAQEhdM1tDQEhdKFtDQEhdKFtDQEBIXShbQ0gyXTEpW09IXSlbQ0gyXVtDSDJdMilbQ0BIXTNbQ0BIXShbQ0gzXSlbQ0gyXVtDQEBIXTRbQ0gyXVtDSDJdTihbQ0gyXVtDSDJdTjRbQ0gzXSlbQ0gyXVtDQEBIXShDKD1PKVtPSF0pQyg9W0NIXUM1PU8pW0NIMl1DKEYpPVtDSF01

>  <s_glide_docking_method>  (1) 
confgen

>  <s_i_glide_gridfile>  (1) 
gpcr_drd2_6luq_protein_autoprepared_prepared

>  <s_lp_Force_Field>  (1) 
S-OPLS

>  <s_lp_Variant>  (1) 
DiffSBDD_67_num_sample_100-4

>  <s_m_source_file>  (1) 
generated__ligand_DiffSBDD_2026-05-06_prepared.sdf

>  <GenAI_Model>  (1) 
DiffSBDD

>  <Protein>  (1) 
generic_title2

$$$$
DiffSBDD_56_num_sample_100
     RDKit          3D

  0  0  0  0  0  0  0  0  0  0999 V3000
M  V30 BEGIN CTAB
M  V30 COUNTS 70 76 0 0 1
M  V30 BEGIN ATOM
M  V30 1 O 5.748055 -2.834997 -17.488305 0
M  V30 2 C 12.757943 5.259142 -17.723587 0
M  V30 3 C 12.037552 8.042085 -20.180311 0
M  V30 4 C 13.370408 5.858648 -20.666583 0
M  V30 5 C 6.927549 1.957970 -20.259355 0 CFG=2
M  V30 6 C 12.043315 3.616179 -20.243497 0
M  V30 7 F 14.360974 3.922183 -19.581974 0
M  V30 8 C 5.537994 -0.416452 -17.615732 0
M  V30 9 C 11.234181 1.344635 -19.493280 0 CFG=1
M  V30 10 C 6.024768 -1.641782 -18.142200 0
M  V30 11 C 12.732741 4.056089 -17.212110 0
M  V30 12 C 9.371705 1.684483 -20.935980 0 CFG=1
M  V30 13 C 10.396573 0.344942 -18.746280 0
M  V30 14 N 7.954168 1.283373 -21.192863 0 CFG=1 CHG=1
M  V30 15 C 13.494535 7.614374 -17.479897 0
M  V30 16 C 13.400825 4.325776 -20.417749 0 CFG=2
M  V30 17 C 7.035275 -0.399675 -19.977066 0
M  V30 18 C 6.321475 -4.092220 -17.911321 0
M  V30 19 C 7.297305 -2.884976 -19.863286 0
M  V30 20 C 12.891128 6.446669 -18.264561 0
M  V30 21 C 4.728236 -0.405013 -16.333700 0
M  V30 22 C 7.827036 -0.252368 -21.216116 0
M  V30 23 C 9.670041 3.166516 -21.278993 0
M  V30 24 C 7.087107 -4.027098 -19.218265 0
M  V30 25 C 11.095725 3.785787 -21.224764 0
M  V30 26 C 6.788491 -1.633562 -19.337949 0
M  V30 27 C 11.066028 6.914592 -20.003226 0
M  V30 28 C 9.757235 1.478518 -19.501664 0 CFG=1
M  V30 29 O 13.409783 7.423235 -16.078634 0
M  V30 30 C 11.822856 2.633029 -19.139624 0
M  V30 31 C 6.568334 0.755423 -19.476735 0
M  V30 32 C 5.736269 2.517596 -21.047744 0
M  V30 33 C 12.201920 2.828444 -17.829286 0
M  V30 34 C 5.815740 0.794650 -18.292925 0
M  V30 35 C 12.539591 6.690762 -19.693783 0
M  V30 36 H 11.930926 8.869191 -19.491464 0
M  V30 37 H 12.278205 8.334659 -21.200463 0
M  V30 38 H 14.392234 6.239484 -20.655364 0
M  V30 39 H 13.002540 6.045893 -21.676228 0
M  V30 40 H 7.343901 2.732232 -19.616147 0
M  V30 41 H 11.760680 0.906864 -20.341071 0
M  V30 42 H 13.049343 3.952297 -16.183666 0
M  V30 43 H 9.988031 1.070129 -21.594732 0
M  V30 44 H 10.383914 0.385086 -17.659265 0
M  V30 45 H 10.261748 -0.635300 -19.179166 0
M  V30 46 H 13.031796 8.569296 -17.702022 0
M  V30 47 H 14.539834 7.716594 -17.759495 0
M  V30 48 H 13.779352 3.907768 -21.351194 0
M  V30 49 H 6.990584 -4.442148 -17.125668 0
M  V30 50 H 5.523218 -4.827605 -18.004342 0
M  V30 51 H 7.851950 -2.866998 -20.788222 0
M  V30 52 H 4.777341 0.569038 -15.849220 0
M  V30 53 H 3.685714 -0.632168 -16.546762 0
M  V30 54 H 5.104201 -1.146883 -15.627731 0
M  V30 55 H 7.247435 -0.589315 -22.076340 0
M  V30 56 H 8.781073 -0.778436 -21.179293 0
M  V30 57 H 9.040669 3.824722 -20.679409 0
M  V30 58 H 9.338942 3.327592 -22.305439 0
M  V30 59 H 7.471127 -4.955849 -19.614560 0
M  V30 60 H 11.326164 4.457757 -22.038420 0
M  V30 61 H 10.646129 6.489371 -20.911449 0
M  V30 62 H 10.377577 6.972549 -19.161982 0
M  V30 63 H 9.315756 2.208950 -18.825178 0
M  V30 64 H 12.497284 7.372492 -15.837192 0
M  V30 65 H 4.953440 2.859728 -20.370504 0
M  V30 66 H 6.037507 3.366386 -21.661631 0
M  V30 67 H 5.299057 1.765044 -21.705632 0
M  V30 68 H 12.037868 1.999720 -17.156636 0
M  V30 69 H 5.453913 1.735761 -17.905086 0
M  V30 70 H 7.747783 1.601068 -22.128447 0
M  V30 END ATOM
M  V30 BEGIN BOND
M  V30 1 1 10 1
M  V30 2 1 10 8
M  V30 3 2 11 2
M  V30 4 1 13 9
M  V30 5 1 14 5
M  V30 6 1 14 12
M  V30 7 1 16 4
M  V30 8 1 16 6
M  V30 9 1 16 7
M  V30 10 1 18 1
M  V30 11 2 20 2
M  V30 12 1 20 15
M  V30 13 1 21 8
M  V30 14 1 22 14
M  V30 15 1 22 17
M  V30 16 1 23 12
M  V30 17 1 24 18
M  V30 18 2 24 19
M  V30 19 2 25 6
M  V30 20 1 25 23
M  V30 21 2 26 10
M  V30 22 1 26 17
M  V30 23 1 26 19
M  V30 24 1 27 3
M  V30 25 1 28 9
M  V30 26 1 28 12
M  V30 27 1 28 13
M  V30 28 1 29 15
M  V30 29 1 30 6
M  V30 30 1 30 9
M  V30 31 1 31 5
M  V30 32 2 31 17
M  V30 33 1 32 5
M  V30 34 1 33 11
M  V30 35 2 33 30
M  V30 36 2 34 8
M  V30 37 1 34 31
M  V30 38 1 35 3
M  V30 39 1 35 4
M  V30 40 1 35 20
M  V30 41 1 35 27
M  V30 42 1 36 3
M  V30 43 1 37 3
M  V30 44 1 38 4
M  V30 45 1 39 4
M  V30 46 1 5 40 CFG=1
M  V30 47 1 9 41 CFG=3
M  V30 48 1 42 11
M  V30 49 1 12 43 CFG=3
M  V30 50 1 44 13
M  V30 51 1 45 13
M  V30 52 1 46 15
M  V30 53 1 47 15
M  V30 54 1 16 48 CFG=3
M  V30 55 1 49 18
M  V30 56 1 50 18
M  V30 57 1 51 19
M  V30 58 1 52 21
M  V30 59 1 53 21
M  V30 60 1 54 21
M  V30 61 1 55 22
M  V30 62 1 56 22
M  V30 63 1 57 23
M  V30 64 1 58 23
M  V30 65 1 59 24
M  V30 66 1 60 25
M  V30 67 1 61 27
M  V30 68 1 62 27
M  V30 69 1 28 63 CFG=1
M  V30 70 1 64 29
M  V30 71 1 65 32
M  V30 72 1 66 32
M  V30 73 1 67 32
M  V30 74 1 68 33
M  V30 75 1 69 34
M  V30 76 1 14 70 CFG=3
M  V30 END BOND
M  V30 END CTAB
M  END
>  <i_epik_Tot_Q>  (1) 
1

>  <i_epik_Tot_abs_Q>  (1) 
1

>  <i_i_glide_confnum>  (1) 
4

>  <i_i_glide_lignum>  (1) 
112

>  <i_i_glide_posenum>  (1) 
22

>  <i_i_glide_rotatable_bonds>  (1) 
3

>  <i_lp_mmshare_version>  (1) 
72125

>  <i_m_source_file_index>  (1) 
57

>  <i_f3d_flags>  (1) 
0

>  <num_sample>  (1) 
100

>  <b_lp_Chiralities_Consistent>  (1) 
1

>  <r_epik_Charging_Adjusted_Penalty>  (1) 
0.14231297848205576

>  <r_epik_Ionization_Penalty>  (1) 
0.071157794031890806

>  <r_epik_Ionization_Penalty_Charging>  (1) 
0.071156489241027923

>  <r_epik_Ionization_Penalty_Neutral>  (1) 
1.3047908628845687e-06

>  <r_epik_State_Penalty>  (1) 
0.071156489241027826

>  <r_glide_ring_energy>  (1) 
0

>  <r_i_docking_score>  (1) 
-2.4164601751272827

>  <r_i_glide_ecoul>  (1) 
-2.0877487094792375

>  <r_i_glide_eff_state_penalty>  (1) 
0.071156489241027826

>  <r_i_glide_einternal>  (1) 
3.0546776612076165

>  <r_i_glide_emodel>  (1) 
-26.538379260446177

>  <r_i_glide_emodel_strain>  (1) 
1.5366142095714963

>  <r_i_glide_energy>  (1) 
-26.142962778299456

>  <r_i_glide_erotb>  (1) 
0.18105195314905365

>  <r_i_glide_esite>  (1) 
0

>  <r_i_glide_evdw>  (1) 
-24.05521406882022

>  <r_i_glide_gscore>  (1) 
-2.4876166643683106

>  <r_i_glide_gscore_strain>  (1) 
0

>  <r_i_glide_hbond>  (1) 
0

>  <r_i_glide_ligand_efficiency>  (1) 
-0.069041719289350933

>  <r_i_glide_ligand_efficiency_ln>  (1) 
-0.53046663888449364

>  <r_i_glide_ligand_efficiency_sa>  (1) 
-0.22584004196489357

>  <r_i_glide_lipo>  (1) 
-0.96612174401810225

>  <r_i_glide_metal>  (1) 
-0

>  <r_i_glide_rewards>  (1) 
-0.18662386363636538

>  <r_lp_Energy>  (1) 
55.302659999999996

>  <s_epik_cmdline>  (1) 
J2VwaWtfcHl0aG9uJywgJy1waHQnLCAnMS4wJywgJy1waCcsICc3LjQnLCAnLXRuJywgJzgnLCAnLW1hJywgJzUwMCcsICctaW1hZScsICc8aW5maWxlLm1hZT4nLCAnLW9tYWUnLCAnPG91dGZpbGUubWFlPic=

>  <s_epik_input>  (1) 
TzFbQ0gyXVtDSF09W0NIXWMoYzEyKWMzYyhbY0hdYzJbQ0gzXSlbQ0BIXShbQ0gzXSlOKFtDSDJdMylbQ0BASF0oW0NIMl1bQ0hdNClbQ0BASF0oW0NIMl01KVtDQEhdNUMoXEM9NFtDQEhdKEYpW0NIMl1DNjdbQ0gyXVtDSDJdNyk9W0NIXVxbQ0hdPUM9QzZbQ0gyXVtPSF0=

>  <s_glide_docking_method>  (1) 
confgen

>  <s_i_glide_gridfile>  (1) 
gpcr_drd2_6luq_protein_autoprepared_prepared

>  <s_lp_Force_Field>  (1) 
S-OPLS

>  <s_lp_Variant>  (1) 
DiffSBDD_56_num_sample_100-1

>  <s_m_source_file>  (1) 
generated__ligand_DiffSBDD_2026-05-06_prepared.sdf

>  <GenAI_Model>  (1) 
DiffSBDD

>  <Protein>  (1) 
generic_title2

$$$$
DiffSBDD_85_num_sample_100
     RDKit          3D

  0  0  0  0  0  0  0  0  0  0999 V3000
M  V30 BEGIN CTAB
M  V30 COUNTS 86 88 0 0 1
M  V30 BEGIN ATOM
M  V30 1 O 5.033285 1.370493 -20.291591 0
M  V30 2 C 7.943512 -1.287897 -18.729756 0
M  V30 3 C 15.565189 8.608933 -20.388711 0
M  V30 4 C 19.017227 7.343564 -20.360509 0
M  V30 5 C 9.412803 -0.793022 -20.765787 0
M  V30 6 C 11.628171 5.396891 -18.192671 0 CFG=1
M  V30 7 C 17.067490 7.368623 -22.056777 0 CFG=2
M  V30 8 C 17.791510 5.799345 -22.045471 0
M  V30 9 C 12.708008 6.346217 -17.619472 0 CFG=2
M  V30 10 C 15.985378 8.137355 -18.969789 0 CFG=2
M  V30 11 C 11.421680 2.994921 -19.072859 0 CFG=2
M  V30 12 C 10.140560 0.884445 -18.291947 0
M  V30 13 C 14.753569 7.842235 -18.080845 0
M  V30 14 C 16.912782 9.169655 -18.286342 0
M  V30 15 C 12.354190 2.061138 -19.874287 0
M  V30 16 C 10.843674 6.038120 -19.354171 0
M  V30 17 C 18.957804 8.791766 -19.871385 0 CFG=1
M  V30 18 O 9.580980 3.084587 -17.499255 0
M  V30 19 C 18.133507 6.913211 -21.294753 0
M  V30 20 O 9.046705 0.934227 -19.098484 0
M  V30 21 C 20.050570 6.439347 -19.821047 0
M  V30 22 C 15.676037 7.516789 -21.464028 0
M  V30 23 C 18.440455 8.929424 -18.403503 0 CFG=1
M  V30 24 C 13.836833 6.721455 -18.606177 0
M  V30 25 C 7.214120 0.372573 -20.484923 0
M  V30 26 C 20.209214 5.152842 -20.191690 0
M  V30 27 C 6.120602 0.890045 -19.533243 0 CFG=2
M  V30 28 C 8.435473 -0.202398 -19.729212 0 CFG=2
M  V30 29 C 5.651239 -0.214339 -18.573576 0
M  V30 30 C 19.153039 10.051738 -17.616467 0
M  V30 31 O 13.275299 5.700723 -16.495163 0
M  V30 32 C 6.841764 -0.778676 -17.784595 0
M  V30 33 O 10.684341 -0.144666 -17.892965 0
M  V30 34 N 12.266484 4.110383 -18.569503 0 CHG=1
M  V30 35 C 10.668477 2.277276 -17.911623 0 CFG=2
M  V30 36 O 20.246037 9.361114 -20.021311 0
M  V30 37 H 4.695471 0.674536 -20.841546 0
M  V30 38 H 8.762933 -1.704284 -18.145537 0
M  V30 39 H 7.543881 -2.131258 -19.294310 0
M  V30 40 H 14.537604 8.973679 -20.357209 0
M  V30 41 H 16.135349 9.476933 -20.717100 0
M  V30 42 H 8.954275 -1.610648 -21.323098 0
M  V30 43 H 9.727295 -0.038960 -21.487918 0
M  V30 44 H 10.308874 -1.187014 -20.294568 0
M  V30 45 H 10.922230 5.209522 -17.384132 0
M  V30 46 H 17.278086 8.023965 -22.899833 0
M  V30 47 H 17.213912 4.990075 -21.603423 0
M  V30 48 H 18.371100 5.523431 -22.924271 0
M  V30 49 H 12.224366 7.259996 -17.270810 0
M  V30 50 H 16.538758 7.201297 -19.040486 0
M  V30 51 H 10.694417 3.379646 -19.787420 0
M  V30 52 H 14.171308 8.754861 -17.940737 0
M  V30 53 H 15.105050 7.553674 -17.091891 0
M  V30 54 H 16.664116 10.169035 -18.639102 0
M  V30 55 H 16.683127 9.197920 -17.220975 0
M  V30 56 H 11.799935 1.295747 -20.418433 0
M  V30 57 H 12.920086 2.616994 -20.622975 0
M  V30 58 H 13.071188 1.555715 -19.225590 0
M  V30 59 H 10.515787 7.044270 -19.091757 0
M  V30 60 H 11.439618 6.111532 -20.263894 0
M  V30 61 H 9.943044 5.472302 -19.591632 0
M  V30 62 H 18.329145 9.378931 -20.538671 0
M  V30 63 H 9.126630 2.644595 -16.795249 0
M  V30 64 H 20.728290 6.833570 -19.078574 0
M  V30 65 H 15.340144 6.556002 -21.074624 0
M  V30 66 H 14.999495 7.758457 -22.284307 0
M  V30 67 H 18.665626 8.001778 -17.875093 0
M  V30 68 H 14.435842 5.840980 -18.841280 0
M  V30 69 H 13.399864 7.055113 -19.546081 0
M  V30 70 H 6.789627 -0.400724 -21.127330 0
M  V30 71 H 7.531892 1.176951 -21.150646 0
M  V30 72 H 20.991293 4.548973 -19.754185 0
M  V30 73 H 19.576529 4.688098 -20.922901 0
M  V30 74 H 6.507475 1.729083 -18.952995 0
M  V30 75 H 4.901619 0.170906 -17.882316 0
M  V30 76 H 5.168896 -1.017680 -19.132548 0
M  V30 77 H 19.053556 11.010304 -18.125010 0
M  V30 78 H 18.737452 10.168595 -16.616073 0
M  V30 79 H 20.216918 9.848891 -17.491934 0
M  V30 80 H 13.773366 6.333002 -15.996663 0
M  V30 81 H 7.248332 -0.009336 -17.127212 0
M  V30 82 H 6.505757 -1.589441 -17.136706 0
M  V30 83 H 12.774101 3.800037 -17.751533 0
M  V30 84 H 11.347713 2.144489 -17.070343 0
M  V30 85 H 20.827266 8.963026 -19.392368 0
M  V30 86 H 12.941582 4.329218 -19.286220 0
M  V30 END ATOM
M  V30 BEGIN BOND
M  V30 1 1 8 7
M  V30 2 1 9 6
M  V30 3 1 10 3
M  V30 4 1 13 10
M  V30 5 1 14 10
M  V30 6 1 15 11
M  V30 7 1 16 6
M  V30 8 1 17 4
M  V30 9 2 19 4
M  V30 10 1 19 7
M  V30 11 1 19 8
M  V30 12 1 20 12
M  V30 13 1 21 4
M  V30 14 1 22 3
M  V30 15 1 22 7
M  V30 16 1 23 14
M  V30 17 1 23 17
M  V30 18 1 24 9
M  V30 19 1 24 13
M  V30 20 2 26 21
M  V30 21 1 27 1
M  V30 22 1 27 25
M  V30 23 1 28 2
M  V30 24 1 28 5
M  V30 25 1 28 20 CFG=1
M  V30 26 1 28 25
M  V30 27 1 29 27
M  V30 28 1 30 23
M  V30 29 1 31 9
M  V30 30 1 32 2
M  V30 31 1 32 29
M  V30 32 2 33 12
M  V30 33 1 34 6
M  V30 34 1 34 11
M  V30 35 1 35 11
M  V30 36 1 35 12
M  V30 37 1 35 18
M  V30 38 1 36 17
M  V30 39 1 37 1
M  V30 40 1 38 2
M  V30 41 1 39 2
M  V30 42 1 40 3
M  V30 43 1 41 3
M  V30 44 1 42 5
M  V30 45 1 43 5
M  V30 46 1 44 5
M  V30 47 1 6 45 CFG=1
M  V30 48 1 7 46 CFG=3
M  V30 49 1 47 8
M  V30 50 1 48 8
M  V30 51 1 9 49 CFG=1
M  V30 52 1 10 50 CFG=3
M  V30 53 1 11 51 CFG=3
M  V30 54 1 52 13
M  V30 55 1 53 13
M  V30 56 1 54 14
M  V30 57 1 55 14
M  V30 58 1 56 15
M  V30 59 1 57 15
M  V30 60 1 58 15
M  V30 61 1 59 16
M  V30 62 1 60 16
M  V30 63 1 61 16
M  V30 64 1 17 62 CFG=3
M  V30 65 1 63 18
M  V30 66 1 64 21
M  V30 67 1 65 22
M  V30 68 1 66 22
M  V30 69 1 23 67 CFG=1
M  V30 70 1 68 24
M  V30 71 1 69 24
M  V30 72 1 70 25
M  V30 73 1 71 25
M  V30 74 1 72 26
M  V30 75 1 73 26
M  V30 76 1 27 74 CFG=1
M  V30 77 1 75 29
M  V30 78 1 76 29
M  V30 79 1 77 30
M  V30 80 1 78 30
M  V30 81 1 79 30
M  V30 82 1 80 31
M  V30 83 1 81 32
M  V30 84 1 82 32
M  V30 85 1 83 34
M  V30 86 1 35 84 CFG=1
M  V30 87 1 85 36
M  V30 88 1 86 34
M  V30 END BOND
M  V30 END CTAB
M  END
>  <i_epik_Tot_Q>  (1) 
1

>  <i_epik_Tot_abs_Q>  (1) 
1

>  <i_i_glide_confnum>  (1) 
561

>  <i_i_glide_lignum>  (1) 
174

>  <i_i_glide_posenum>  (1) 
37

>  <i_i_glide_rotatable_bonds>  (1) 
15

>  <i_lp_mmshare_version>  (1) 
72125

>  <i_m_source_file_index>  (1) 
86

>  <i_f3d_flags>  (1) 
0

>  <num_sample>  (1) 
100

>  <b_lp_Chiralities_Consistent>  (1) 
1

>  <r_epik_Charging_Adjusted_Penalty>  (1) 
0.062696987853435748

>  <r_epik_Ionization_Penalty>  (1) 
0.034019236300638377

>  <r_epik_Ionization_Penalty_Charging>  (1) 
0.03134849392671793

>  <r_epik_Ionization_Penalty_Neutral>  (1) 
0.0026707423739204469

>  <r_epik_State_Penalty>  (1) 
0.031348493926717819

>  <r_glide_ring_energy>  (1) 
0

>  <r_i_docking_score>  (1) 
-2.4154532834901348

>  <r_i_glide_ecoul>  (1) 
-4.0159697798695495

>  <r_i_glide_eff_state_penalty>  (1) 
0.031348493926717819

>  <r_i_glide_einternal>  (1) 
13.651124865482657

>  <r_i_glide_emodel>  (1) 
-25.975167092893898

>  <r_i_glide_emodel_strain>  (1) 
0

>  <r_i_glide_energy>  (1) 
-28.561374888904123

>  <r_i_glide_erotb>  (1) 
0.87027123501495496

>  <r_i_glide_esite>  (1) 
0

>  <r_i_glide_evdw>  (1) 
-24.545405109034572

>  <r_i_glide_gscore>  (1) 
-2.4468017774168525

>  <r_i_glide_gscore_strain>  (1) 
0

>  <r_i_glide_hbond>  (1) 
-0.26019951244847705

>  <r_i_glide_ligand_efficiency>  (1) 
-0.067095924541392626

>  <r_i_glide_ligand_efficiency_ln>  (1) 
-0.52698664845131937

>  <r_i_glide_ligand_efficiency_sa>  (1) 
-0.2215458615330021

>  <r_i_glide_lipo>  (1) 
-1.1012068246061473

>  <r_i_glide_metal>  (1) 
-0

>  <r_i_glide_rewards>  (1) 
-0.12600095294502164

>  <r_lp_Energy>  (1) 
47.724364000000001

>  <s_epik_Chemistry_Notes>  (1) 
This compound has an ester and may undergo hydrolysis at high or low pH.

>  <s_epik_cmdline>  (1) 
J2VwaWtfcHl0aG9uJywgJy1waHQnLCAnMS4wJywgJy1waCcsICc3LjQnLCAnLXRuJywgJzgnLCAnLW1hJywgJzUwMCcsICctaW1hZScsICc8aW5maWxlLm1hZT4nLCAnLW9tYWUnLCAnPG91dGZpbGUubWFlPic=

>  <s_epik_input>  (1) 
W09IXVtDQEhdKFtDSDJdMSlbQ0gyXVtDSDJdW0NIMl1bQ0BdMShbQ0gzXSlPQyg9TylbQ0BIXShbT0hdKVtDQEhdKFtDSDNdKVtOSF1bQ0BIXShbQ0gzXSlbQ0BASF0oW09IXSlbQ0gyXVtDSDJdW0NAQEhdKFtDSDJdW0NIMl0yKVtDSDJdW0NASF0oW0NIM10pW0NAQEhdKFtPSF0pL0MoPUMoXFtDSF0yMylbQ0gyXTMpW0NIXT1bQ0gyXQ==

>  <s_glide_docking_method>  (1) 
confgen

>  <s_i_glide_gridfile>  (1) 
gpcr_drd2_6luq_protein_autoprepared_prepared

>  <s_lp_Force_Field>  (1) 
S-OPLS

>  <s_lp_Variant>  (1) 
DiffSBDD_85_num_sample_100-1

>  <s_m_source_file>  (1) 
generated__ligand_DiffSBDD_2026-05-06_prepared.sdf

>  <GenAI_Model>  (1) 
DiffSBDD

>  <Protein>  (1) 
generic_title2

$$$$
DiffSBDD_52_num_sample_100
     RDKit          3D

  0  0  0  0  0  0  0  0  0  0999 V3000
M  V30 BEGIN CTAB
M  V30 COUNTS 53 55 0 0 1
M  V30 BEGIN ATOM
M  V30 1 C 4.856000 -1.843907 -17.909781 0
M  V30 2 N 6.190155 6.147151 -18.289835 0
M  V30 3 C 7.738468 0.228806 -16.473905 0
M  V30 4 C 7.403440 5.551641 -18.869537 0
M  V30 5 N 4.988837 -3.253696 -17.491666 0 CHG=1
M  V30 6 N 7.833067 2.884307 -14.838530 0
M  V30 7 O 4.771247 6.772725 -16.614905 0
M  V30 8 C 7.243788 5.777431 -20.387812 0 CFG=2
M  V30 9 C 5.034416 4.581451 -20.691562 0
M  V30 10 C 5.835453 6.234655 -16.941362 0
M  V30 11 N 8.634821 3.469669 -12.691638 0
M  V30 12 C 6.989692 -0.602733 -17.329816 0
M  V30 13 C 7.159968 0.724304 -15.287799 0
M  V30 14 C 8.103951 6.970149 -20.851719 0
M  V30 15 C 5.717832 5.965265 -20.596513 0
M  V30 16 N 7.565645 5.545497 -12.446812 0
M  V30 17 C 5.282252 6.668632 -19.303386 0
M  V30 18 C 5.080859 -0.431643 -15.819214 0
M  V30 19 C 7.316352 5.060077 -13.637532 0
M  V30 20 C 6.397266 5.771542 -14.638433 0
M  V30 21 C 7.941658 3.777740 -13.751984 0
M  V30 22 O 7.891734 1.513656 -14.449857 0
M  V30 23 C 5.659397 -0.937112 -17.000652 0
M  V30 24 O 8.411849 4.579722 -11.843602 0
M  V30 25 C 5.833804 0.393250 -14.961404 0
M  V30 26 O 7.904827 5.095461 -16.354285 0 CHG=-1
M  V30 27 N 6.741087 5.667730 -15.993895 0
M  V30 28 O 5.434863 6.425612 -14.229432 0
M  V30 29 C 5.322354 6.777533 -21.846242 0
M  V30 30 H 3.808285 -1.545779 -17.891749 0
M  V30 31 H 5.198015 -1.736387 -18.939859 0
M  V30 32 H 8.758402 0.482460 -16.723044 0
M  V30 33 H 8.323133 6.029259 -18.527041 0
M  V30 34 H 7.437929 4.477026 -18.681156 0
M  V30 35 H 4.468579 -3.851137 -18.116032 0
M  V30 36 H 5.964084 -3.514125 -17.501746 0
M  V30 37 H 7.596844 4.898491 -20.929336 0
M  V30 38 H 5.258831 3.954138 -19.828134 0
M  V30 39 H 3.949332 4.675706 -20.744865 0
M  V30 40 H 5.360594 4.040005 -21.580124 0
M  V30 41 H 7.437269 -0.986255 -18.234936 0
M  V30 42 H 7.794370 7.896253 -20.367678 0
M  V30 43 H 9.155793 6.810157 -20.613014 0
M  V30 44 H 8.042877 7.114378 -21.930275 0
M  V30 45 H 4.234386 6.474111 -19.077122 0
M  V30 46 H 5.416860 7.749578 -19.367493 0
M  V30 47 H 4.062074 -0.684517 -15.563631 0
M  V30 48 H 5.392257 0.770839 -14.050790 0
M  V30 49 H 5.703776 7.798093 -21.810141 0
M  V30 50 H 5.702532 6.311764 -22.755968 0
M  V30 51 H 4.238233 6.848649 -21.939905 0
M  V30 52 H 4.635660 -3.394163 -16.542663 0
M  V30 53 H 7.098137 3.019290 -15.518212 0
M  V30 END ATOM
M  V30 BEGIN BOND
M  V30 1 1 4 2
M  V30 2 1 5 1
M  V30 3 1 8 4
M  V30 4 1 10 2
M  V30 5 2 10 7
M  V30 6 2 12 3
M  V30 7 1 13 3
M  V30 8 1 14 8
M  V30 9 1 15 8
M  V30 10 1 15 9
M  V30 11 1 17 2
M  V30 12 1 17 15
M  V30 13 2 19 16
M  V30 14 1 20 19
M  V30 15 1 21 6
M  V30 16 2 21 11
M  V30 17 1 21 19
M  V30 18 1 22 6
M  V30 19 1 22 13
M  V30 20 1 23 1
M  V30 21 1 23 12
M  V30 22 2 23 18
M  V30 23 1 24 11
M  V30 24 1 24 16
M  V30 25 2 25 13
M  V30 26 1 25 18
M  V30 27 1 27 10
M  V30 28 1 27 20
M  V30 29 1 27 26
M  V30 30 2 28 20
M  V30 31 1 29 15
M  V30 32 1 30 1
M  V30 33 1 31 1
M  V30 34 1 32 3
M  V30 35 1 33 4
M  V30 36 1 34 4
M  V30 37 1 35 5
M  V30 38 1 36 5
M  V30 39 1 8 37 CFG=3
M  V30 40 1 38 9
M  V30 41 1 39 9
M  V30 42 1 40 9
M  V30 43 1 41 12
M  V30 44 1 42 14
M  V30 45 1 43 14
M  V30 46 1 44 14
M  V30 47 1 45 17
M  V30 48 1 46 17
M  V30 49 1 47 18
M  V30 50 1 48 25
M  V30 51 1 49 29
M  V30 52 1 50 29
M  V30 53 1 51 29
M  V30 54 1 52 5
M  V30 55 1 53 6
M  V30 END BOND
M  V30 END CTAB
M  END
>  <i_epik_Tot_Q>  (1) 
0

>  <i_epik_Tot_abs_Q>  (1) 
2

>  <i_i_glide_confnum>  (1) 
218

>  <i_i_glide_lignum>  (1) 
98

>  <i_i_glide_posenum>  (1) 
177

>  <i_i_glide_rotatable_bonds>  (1) 
8

>  <i_lp_mmshare_version>  (1) 
72125

>  <i_m_source_file_index>  (1) 
53

>  <i_f3d_flags>  (1) 
0

>  <num_sample>  (1) 
100

>  <b_lp_Chiralities_Consistent>  (1) 
1

>  <r_epik_Charging_Adjusted_Penalty>  (1) 
0.77952941266153319

>  <r_epik_Ionization_Penalty>  (1) 
0.7795476472939552

>  <r_epik_Ionization_Penalty_Charging>  (1) 
0.080812989066233118

>  <r_epik_Ionization_Penalty_Neutral>  (1) 
0.69873465822772207

>  <r_epik_State_Penalty>  (1) 
0.69871642359530006

>  <r_glide_ring_energy>  (1) 
0.88900172443488756

>  <r_i_docking_score>  (1) 
-2.4066719193452437

>  <r_i_glide_ecoul>  (1) 
-2.9098388242057802

>  <r_i_glide_eff_state_penalty>  (1) 
0.69871642359530006

>  <r_i_glide_einternal>  (1) 
14.575317693341816

>  <r_i_glide_emodel>  (1) 
-40.358624960607237

>  <r_i_glide_emodel_strain>  (1) 
0.10901527810443667

>  <r_i_glide_energy>  (1) 
-39.261420730442019

>  <r_i_glide_erotb>  (1) 
0.84066204516479937

>  <r_i_glide_esite>  (1) 
-0.092794269632892071

>  <r_i_glide_evdw>  (1) 
-36.351581906236241

>  <r_i_glide_gscore>  (1) 
-3.105388342940544

>  <r_i_glide_gscore_strain>  (1) 
0

>  <r_i_glide_hbond>  (1) 
-0.20000000000000001

>  <r_i_glide_ligand_efficiency>  (1) 
-0.082988686873973927

>  <r_i_glide_ligand_efficiency_ln>  (1) 
-0.55106684159582042

>  <r_i_glide_ligand_efficiency_sa>  (1) 
-0.25496753902448432

>  <r_i_glide_lipo>  (1) 
-1.2176581719410255

>  <r_i_glide_metal>  (1) 
-0

>  <r_i_glide_rewards>  (1) 
-0.18154302758874641

>  <r_lp_Energy>  (1) 
48.879171999999997

>  <s_epik_Chemistry_Notes>  (1) 
This compound has a N-S or N-O group and may undergo hydrolysis at high or low pH.

>  <s_epik_cmdline>  (1) 
J2VwaWtfcHl0aG9uJywgJy1waHQnLCAnMS4wJywgJy1waCcsICc3LjQnLCAnLXRuJywgJzgnLCAnLW1hJywgJzUwMCcsICctaW1hZScsICc8aW5maWxlLm1hZT4nLCAnLW9tYWUnLCAnPG91dGZpbGUubWFlPic=

>  <s_epik_input>  (1) 
W05IMl1bQ0gyXWMoW2NIXVtjSF0xKVtjSF1bY0hdYzFPL049YzIvW25IXW9uYzJDKD1PKU4oW09IXSlDKD1PKU4oW0NIMl0zKVtDSDJdW0NASF0oW0NIM10pQzMoW0NIM10pW0NIM10=

>  <s_glide_docking_method>  (1) 
confgen

>  <s_i_glide_gridfile>  (1) 
gpcr_drd2_6luq_protein_autoprepared_prepared

>  <s_lp_Force_Field>  (1) 
S-OPLS

>  <s_lp_Variant>  (1) 
DiffSBDD_52_num_sample_100-2

>  <s_m_source_file>  (1) 
generated__ligand_DiffSBDD_2026-05-06_prepared.sdf

>  <GenAI_Model>  (1) 
DiffSBDD

>  <Protein>  (1) 
generic_title2

$$$$
DiffSBDD_45_num_sample_100
     RDKit          3D

  0  0  0  0  0  0  0  0  0  0999 V3000
M  V30 BEGIN CTAB
M  V30 COUNTS 63 65 0 0 1
M  V30 BEGIN ATOM
M  V30 1 C 14.954518 9.248549 -21.374469 0
M  V30 2 C 9.718230 2.955484 -18.950430 0
M  V30 3 C 15.726146 10.222515 -20.466314 0
M  V30 4 C 7.669512 0.652417 -17.745838 0 CFG=1
M  V30 5 C 8.519216 1.789112 -17.120192 0 CFG=1
M  V30 6 C 5.777806 1.762698 -18.988201 0
M  V30 7 C 14.107297 6.886624 -17.537720 0
M  V30 8 C 15.417899 7.284671 -19.790121 0 CFG=1
M  V30 9 O 13.892739 8.097990 -17.498290 0
M  V30 10 N 8.715505 3.034513 -17.880405 0
M  V30 11 Cl 7.834454 2.279099 -15.542428 0
M  V30 12 C 13.385045 3.780351 -17.720870 0 CFG=1
M  V30 13 C 15.445304 4.238041 -16.184623 0
M  V30 14 C 16.618869 9.490545 -19.485282 0
M  V30 15 C 11.847182 3.928137 -17.840073 0
M  V30 16 N 6.240284 0.969382 -17.843795 0
M  V30 17 C 14.096107 4.029338 -19.064129 0
M  V30 18 C 11.179123 2.718379 -18.525872 0
M  V30 19 C 16.485468 8.189465 -19.185005 0
M  V30 20 C 7.462135 3.653054 -18.329986 0
M  V30 21 C 13.984890 4.590415 -16.542872 0 CFG=1
M  V30 22 C 14.851616 6.273356 -18.753807 0 CFG=2
M  V30 23 F 8.137784 0.243028 -18.925454 0
M  V30 24 O 14.004025 5.383421 -19.468896 0
M  V30 25 C 14.342273 8.089767 -20.571610 0
M  V30 26 C 6.708912 2.900248 -19.444533 0
M  V30 27 N 13.716265 6.047930 -16.538306 0
M  V30 28 C 13.003672 6.569359 -15.364409 0
M  V30 29 H 15.630419 8.842856 -22.128147 0
M  V30 30 H 14.175734 9.787105 -21.915864 0
M  V30 31 H 9.691524 3.874899 -19.536886 0
M  V30 32 H 9.447926 2.162391 -19.645852 0
M  V30 33 H 15.034886 10.839485 -19.891581 0
M  V30 34 H 16.327428 10.900726 -21.072317 0
M  V30 35 H 7.776130 -0.213061 -17.090262 0
M  V30 36 H 9.489871 1.366269 -16.871207 0
M  V30 37 H 4.803251 2.181502 -18.743520 0
M  V30 38 H 5.603782 1.103726 -19.839765 0
M  V30 39 H 15.959815 6.693216 -20.529207 0
M  V30 40 H 13.567804 2.734224 -17.469067 0
M  V30 41 H 15.490363 3.261333 -15.701334 0
M  V30 42 H 16.112817 4.188288 -17.039720 0
M  V30 43 H 15.861801 4.967672 -15.491666 0
M  V30 44 H 17.397151 10.070719 -19.012212 0
M  V30 45 H 11.404014 4.037856 -16.849308 0
M  V30 46 H 11.609325 4.848157 -18.375609 0
M  V30 47 H 5.703209 0.108578 -17.803902 0
M  V30 48 H 13.643914 3.427673 -19.850251 0
M  V30 49 H 15.136684 3.705284 -19.033757 0
M  V30 50 H 11.723391 2.479972 -19.437745 0
M  V30 51 H 11.280935 1.831353 -17.902442 0
M  V30 52 H 17.161214 7.734746 -18.475564 0
M  V30 53 H 6.794167 3.824442 -17.486814 0
M  V30 54 H 7.697386 4.650673 -18.702552 0
M  V30 55 H 13.434834 4.214794 -15.682077 0
M  V30 56 H 15.733558 5.756366 -18.387488 0
M  V30 57 H 13.800451 7.421948 -21.241941 0
M  V30 58 H 13.591156 8.507717 -19.903450 0
M  V30 59 H 6.091572 3.621340 -19.981074 0
M  V30 60 H 7.396917 2.523850 -20.199384 0
M  V30 61 H 13.034828 7.655432 -15.268486 0
M  V30 62 H 11.956067 6.268824 -15.403306 0
M  V30 63 H 13.434957 6.169289 -14.447967 0
M  V30 END ATOM
M  V30 BEGIN BOND
M  V30 1 1 3 1
M  V30 2 1 5 4
M  V30 3 2 9 7
M  V30 4 1 10 2
M  V30 5 1 10 5
M  V30 6 1 11 5
M  V30 7 1 14 3
M  V30 8 1 15 12
M  V30 9 1 16 4
M  V30 10 1 16 6
M  V30 11 1 17 12
M  V30 12 1 18 2
M  V30 13 1 18 15
M  V30 14 1 19 8
M  V30 15 2 19 14
M  V30 16 1 20 10
M  V30 17 1 21 12
M  V30 18 1 21 13
M  V30 19 1 22 7
M  V30 20 1 22 8
M  V30 21 1 23 4
M  V30 22 1 24 17
M  V30 23 1 24 22
M  V30 24 1 25 1
M  V30 25 1 25 8
M  V30 26 1 26 6
M  V30 27 1 26 20
M  V30 28 1 27 7
M  V30 29 1 27 21
M  V30 30 1 28 27
M  V30 31 1 29 1
M  V30 32 1 30 1
M  V30 33 1 31 2
M  V30 34 1 32 2
M  V30 35 1 33 3
M  V30 36 1 34 3
M  V30 37 1 4 35 CFG=1
M  V30 38 1 5 36 CFG=1
M  V30 39 1 37 6
M  V30 40 1 38 6
M  V30 41 1 8 39 CFG=3
M  V30 42 1 12 40 CFG=1
M  V30 43 1 41 13
M  V30 44 1 42 13
M  V30 45 1 43 13
M  V30 46 1 44 14
M  V30 47 1 45 15
M  V30 48 1 46 15
M  V30 49 1 47 16
M  V30 50 1 48 17
M  V30 51 1 49 17
M  V30 52 1 50 18
M  V30 53 1 51 18
M  V30 54 1 52 19
M  V30 55 1 53 20
M  V30 56 1 54 20
M  V30 57 1 21 55 CFG=1
M  V30 58 1 22 56 CFG=1
M  V30 59 1 57 25
M  V30 60 1 58 25
M  V30 61 1 59 26
M  V30 62 1 60 26
M  V30 63 1 61 28
M  V30 64 1 62 28
M  V30 65 1 63 28
M  V30 END BOND
M  V30 END CTAB
M  END
>  <i_epik_Tot_Q>  (1) 
0

>  <i_epik_Tot_abs_Q>  (1) 
0

>  <i_i_glide_confnum>  (1) 
147

>  <i_i_glide_lignum>  (1) 
82

>  <i_i_glide_posenum>  (1) 
58

>  <i_i_glide_rotatable_bonds>  (1) 
5

>  <i_lp_mmshare_version>  (1) 
72125

>  <i_m_source_file_index>  (1) 
46

>  <i_f3d_flags>  (1) 
0

>  <num_sample>  (1) 
100

>  <b_lp_Chiralities_Consistent>  (1) 
1

>  <r_epik_Charging_Adjusted_Penalty>  (1) 
0.015133208647659156

>  <r_epik_Ionization_Penalty>  (1) 
0.015206278080010002

>  <r_epik_Ionization_Penalty_Charging>  (1) 
0

>  <r_epik_Ionization_Penalty_Neutral>  (1) 
0.015206278080010002

>  <r_epik_State_Penalty>  (1) 
0.015133208647659156

>  <r_glide_ring_energy>  (1) 
0.93438330479392218

>  <r_i_docking_score>  (1) 
-2.3728701484084009

>  <r_i_glide_ecoul>  (1) 
1.3003758881751595

>  <r_i_glide_eff_state_penalty>  (1) 
0.015133208647659156

>  <r_i_glide_einternal>  (1) 
4.0290342321314192

>  <r_i_glide_emodel>  (1) 
-23.285922261654683

>  <r_i_glide_emodel_strain>  (1) 
0.19662464417658043

>  <r_i_glide_energy>  (1) 
-22.545217589879197

>  <r_i_glide_erotb>  (1) 
0.45657733151366331

>  <r_i_glide_esite>  (1) 
0

>  <r_i_glide_evdw>  (1) 
-23.845593478054358

>  <r_i_glide_gscore>  (1) 
-2.3880033570560601

>  <r_i_glide_gscore_strain>  (1) 
0

>  <r_i_glide_hbond>  (1) 
0

>  <r_i_glide_ligand_efficiency>  (1) 
-0.084745362443157182

>  <r_i_glide_ligand_efficiency_ln>  (1) 
-0.54772810074758838

>  <r_i_glide_ligand_efficiency_sa>  (1) 
-0.25733683301249705

>  <r_i_glide_lipo>  (1) 
-0.99057445988244364

>  <r_i_glide_metal>  (1) 
-0

>  <r_i_glide_rewards>  (1) 
-0.85678293801083594

>  <r_lp_Energy>  (1) 
30.384622

>  <s_epik_cmdline>  (1) 
J2VwaWtfcHl0aG9uJywgJy1waHQnLCAnMS4wJywgJy1waCcsICc3LjQnLCAnLXRuJywgJzgnLCAnLW1hJywgJzUwMCcsICctaW1hZScsICc8aW5maWxlLm1hZT4nLCAnLW9tYWUnLCAnPG91dGZpbGUubWFlPic=

>  <s_epik_input>  (1) 
W0NIMl0xW0NIMl1bQ0gyXVtDSF09W0NIXVtDQEhdMVtDQEBIXShDMj1PKU9bQ0gyXVtDQEBIXShbQ0BASF0oW0NIM10pTjJbQ0gzXSlbQ0gyXVtDSDJdW0NIMl1OKFtDQEBIXShDbClbQ0BASF0zRilbQ0gyXVtDSDJdW0NIMl1bTkhdMw==

>  <s_glide_docking_method>  (1) 
confgen

>  <s_i_glide_gridfile>  (1) 
gpcr_drd2_6luq_protein_autoprepared_prepared

>  <s_lp_Force_Field>  (1) 
S-OPLS

>  <s_lp_Variant>  (1) 
DiffSBDD_45_num_sample_100-1

>  <s_m_source_file>  (1) 
generated__ligand_DiffSBDD_2026-05-06_prepared.sdf

>  <GenAI_Model>  (1) 
DiffSBDD

>  <Protein>  (1) 
generic_title2

$$$$
DiffSBDD_42_num_sample_100
     RDKit          3D

  0  0  0  0  0  0  0  0  0  0999 V3000
M  V30 BEGIN CTAB
M  V30 COUNTS 44 45 0 0 1
M  V30 BEGIN ATOM
M  V30 1 C 8.947004 6.041232 -10.789942 0 CFG=2
M  V30 2 O 10.634861 7.369284 -11.855951 0
M  V30 3 N 8.608186 4.569312 -14.629520 0
M  V30 4 C 6.808704 0.561696 -13.747809 0
M  V30 5 C 10.748602 5.191196 -16.091939 0
M  V30 6 O 9.429986 5.216909 -16.630775 0
M  V30 7 C 7.660108 1.760395 -14.082050 0 CFG=1
M  V30 8 N 10.580709 7.416326 -9.522476 0
M  V30 9 C 7.661832 5.262272 -12.601192 0 CFG=2
M  V30 10 C 9.182410 5.759032 -8.328496 0
M  V30 11 C 7.861214 2.897652 -13.105330 0
M  V30 12 C 5.834817 6.570598 -13.297723 0
M  V30 13 O 8.928162 5.363218 -12.036733 0
M  V30 14 C 10.145197 7.009684 -10.789297 0
M  V30 15 C 8.291756 4.926961 -15.933708 0
M  V30 16 N 7.667181 4.244491 -13.651989 0
M  V30 17 C 10.660320 7.431673 -7.079056 0
M  V30 18 O 7.163718 4.985336 -16.418605 0
M  V30 19 C 9.010110 5.026501 -9.654303 0
M  V30 20 N 8.234818 0.569298 -13.491698 0
M  V30 21 O 7.236140 6.494983 -13.092181 0
M  V30 22 C 10.175558 6.911918 -8.415317 0
M  V30 23 H 8.050040 6.638574 -10.691680 0
M  V30 24 H 9.582679 4.574304 -14.364543 0
M  V30 25 H 6.142961 0.622930 -12.888772 0
M  V30 26 H 6.454126 -0.062895 -14.566039 0
M  V30 27 H 11.444312 5.617185 -16.814492 0
M  V30 28 H 10.824778 5.769299 -15.171231 0
M  V30 29 H 11.063714 4.169265 -15.891679 0
M  V30 30 H 7.932249 1.946226 -15.119359 0
M  V30 31 H 6.957938 4.905836 -11.845032 0
M  V30 32 H 9.488531 5.061398 -7.549941 0
M  V30 33 H 8.227585 6.169355 -8.010488 0
M  V30 34 H 8.862571 2.836614 -12.672687 0
M  V30 35 H 7.152252 2.755499 -12.291673 0
M  V30 36 H 5.575011 7.542283 -13.715307 0
M  V30 37 H 5.484913 5.807214 -13.993910 0
M  V30 38 H 5.298288 6.458308 -12.355061 0
M  V30 39 H 9.812720 7.639621 -6.425183 0
M  V30 40 H 11.299582 6.691842 -6.597201 0
M  V30 41 H 11.230440 8.353099 -7.205163 0
M  V30 42 H 8.095253 4.435554 -9.633484 0
M  V30 43 H 9.834831 4.333000 -9.817998 0
M  V30 44 H 8.546659 0.636207 -12.529453 0
M  V30 END ATOM
M  V30 BEGIN BOND
M  V30 1 1 6 5
M  V30 2 1 7 4
M  V30 3 1 11 7
M  V30 4 1 13 1
M  V30 5 1 13 9
M  V30 6 1 14 1
M  V30 7 2 14 2
M  V30 8 1 14 8
M  V30 9 1 15 3
M  V30 10 1 15 6
M  V30 11 1 16 3
M  V30 12 1 16 9
M  V30 13 1 16 11
M  V30 14 2 18 15
M  V30 15 1 19 1
M  V30 16 1 19 10
M  V30 17 1 20 4
M  V30 18 1 20 7
M  V30 19 1 21 9
M  V30 20 1 21 12
M  V30 21 2 22 8
M  V30 22 1 22 10
M  V30 23 1 22 17
M  V30 24 1 1 23 CFG=1
M  V30 25 1 24 3
M  V30 26 1 25 4
M  V30 27 1 26 4
M  V30 28 1 27 5
M  V30 29 1 28 5
M  V30 30 1 29 5
M  V30 31 1 7 30 CFG=3
M  V30 32 1 9 31 CFG=1
M  V30 33 1 32 10
M  V30 34 1 33 10
M  V30 35 1 34 11
M  V30 36 1 35 11
M  V30 37 1 36 12
M  V30 38 1 37 12
M  V30 39 1 38 12
M  V30 40 1 39 17
M  V30 41 1 40 17
M  V30 42 1 41 17
M  V30 43 1 42 19
M  V30 44 1 43 19
M  V30 45 1 44 20
M  V30 END BOND
M  V30 END CTAB
M  END
>  <i_epik_Tot_Q>  (1) 
0

>  <i_epik_Tot_abs_Q>  (1) 
0

>  <i_i_glide_confnum>  (1) 
336

>  <i_i_glide_lignum>  (1) 
74

>  <i_i_glide_posenum>  (1) 
54

>  <i_i_glide_rotatable_bonds>  (1) 
9

>  <i_lp_mmshare_version>  (1) 
72125

>  <i_m_source_file_index>  (1) 
43

>  <i_f3d_flags>  (1) 
0

>  <num_sample>  (1) 
100

>  <b_lp_Chiralities_Consistent>  (1) 
1

>  <r_epik_Charging_Adjusted_Penalty>  (1) 
0.73434514420425445

>  <r_epik_Ionization_Penalty>  (1) 
0.73524222016862195

>  <r_epik_Ionization_Penalty_Charging>  (1) 
0

>  <r_epik_Ionization_Penalty_Neutral>  (1) 
0.73524222016862195

>  <r_epik_State_Penalty>  (1) 
0.73434514420425445

>  <r_glide_ring_energy>  (1) 
0.0014600404396934196

>  <r_i_docking_score>  (1) 
-2.3663176747761501

>  <r_i_glide_ecoul>  (1) 
-4.8442560794083267

>  <r_i_glide_eff_state_penalty>  (1) 
0.73434514420425445

>  <r_i_glide_einternal>  (1) 
12.746818953333158

>  <r_i_glide_emodel>  (1) 
-35.676934758128397

>  <r_i_glide_emodel_strain>  (1) 
0.13951692710756447

>  <r_i_glide_energy>  (1) 
-35.009282821339717

>  <r_i_glide_erotb>  (1) 
1.1286281717494191

>  <r_i_glide_esite>  (1) 
-0.10190981773746793

>  <r_i_glide_evdw>  (1) 
-30.165026741931388

>  <r_i_glide_gscore>  (1) 
-3.1006628189804046

>  <r_i_glide_gscore_strain>  (1) 
0

>  <r_i_glide_hbond>  (1) 
-0.22428376388016752

>  <r_i_glide_ligand_efficiency>  (1) 
-0.10755989430800682

>  <r_i_glide_ligand_efficiency_ln>  (1) 
-0.5784143532496594

>  <r_i_glide_ligand_efficiency_sa>  (1) 
-0.30138705425217166

>  <r_i_glide_lipo>  (1) 
-0.70201981308369055

>  <r_i_glide_metal>  (1) 
-0

>  <r_i_glide_rewards>  (1) 
-0.96618784702067961

>  <r_lp_Energy>  (1) 
12.752139999999999

>  <s_epik_Chemistry_Notes>  (1) 
This compound has an ester and may undergo hydrolysis at high or low pH. This compound has an imine and may undergo hydrolysis. This compound contains an acetal/aminal-like group ( X-CH(R)-Y where X, Y are N, S, or O) that may be acid/base labile, releasing an aldehyde.

>  <s_epik_cmdline>  (1) 
J2VwaWtfcHl0aG9uJywgJy1waHQnLCAnMS4wJywgJy1waCcsICc3LjQnLCAnLXRuJywgJzgnLCAnLW1hJywgJzUwMCcsICctaW1hZScsICc8aW5maWxlLm1hZT4nLCAnLW9tYWUnLCAnPG91dGZpbGUubWFlPic=

>  <s_epik_input>  (1) 
W0NIMl0xW0NIMl1DKFtDSDNdKT1OQyg9TylbQ0BIXTFPW0NAQEhdKE9bQ0gzXSlOKFtOSF1DKD1PKU9bQ0gzXSlbQ0gyXVtDQEBIXTJbQ0gyXVtOSF0y

>  <s_glide_docking_method>  (1) 
confgen

>  <s_i_glide_gridfile>  (1) 
gpcr_drd2_6luq_protein_autoprepared_prepared

>  <s_lp_Force_Field>  (1) 
S-OPLS

>  <s_lp_Variant>  (1) 
DiffSBDD_42_num_sample_100-2

>  <s_m_source_file>  (1) 
generated__ligand_DiffSBDD_2026-05-06_prepared.sdf

>  <GenAI_Model>  (1) 
DiffSBDD

>  <Protein>  (1) 
generic_title2

$$$$
DiffSBDD_10_num_sample_100
     RDKit          3D

  0  0  0  0  0  0  0  0  0  0999 V3000
M  V30 BEGIN CTAB
M  V30 COUNTS 71 74 0 0 1
M  V30 BEGIN ATOM
M  V30 1 Cl 9.477832 8.261399 -21.491727 0
M  V30 2 C 7.341290 4.178416 -13.225557 0 CFG=1
M  V30 3 O 7.755285 3.636011 -17.557575 0
M  V30 4 C 7.402011 4.147096 -19.896384 0 CFG=1
M  V30 5 C 6.306435 4.354848 -12.125611 0
M  V30 6 C 9.497153 5.533694 -11.270362 0
M  V30 7 C 7.434851 4.969303 -9.906360 0
M  V30 8 C 9.017263 4.861316 -15.926012 0
M  V30 9 C 6.042987 4.716147 -19.408218 0
M  V30 10 C 8.682264 6.298546 -12.341723 0
M  V30 11 C 5.782375 7.070476 -21.150290 0
M  V30 12 C 8.517808 3.461569 -16.362036 0 CFG=1
M  V30 13 C 6.659808 4.594167 -10.891274 0
M  V30 14 N 6.934632 1.593860 -15.903434 0
M  V30 15 C 7.228868 1.530085 -20.580958 0 CFG=2
M  V30 16 N 6.436417 1.238689 -19.376961 0
M  V30 17 O 7.217386 3.363734 -22.136316 0
M  V30 18 C 6.799454 -0.736869 -16.575335 0
M  V30 19 C 4.992362 8.170840 -21.516679 0
M  V30 20 C 7.723556 0.478884 -16.393997 0
M  V30 21 C 8.657682 0.943991 -20.516033 0
M  V30 22 N 8.786559 5.242690 -10.024755 0
M  V30 23 C 6.713306 3.522622 -14.469788 0
M  V30 24 C 8.182870 5.452004 -13.553671 0 CFG=1
M  V30 25 C 8.372950 3.795628 -18.755101 0
M  V30 26 S 5.034843 5.531581 -20.692915 0
M  V30 27 C 6.147889 -0.180945 -19.250441 0
M  V30 28 C 9.376177 5.045826 -14.442231 0
M  V30 29 C 7.044612 9.388039 -21.877673 0
M  V30 30 C 7.753443 8.226901 -21.493358 0
M  V30 31 F 4.927624 10.448302 -22.249368 0
M  V30 32 C 7.276910 3.027529 -20.954776 0
M  V30 33 C 7.701819 2.675227 -15.298550 0 CFG=2
M  V30 34 C 5.640777 9.355305 -21.886285 0
M  V30 35 S 5.356215 -0.452095 -17.651254 0
M  V30 36 O 9.585400 3.688823 -18.944361 0
M  V30 37 N 7.130713 7.081423 -21.124135 0
M  V30 38 H 8.026434 3.443645 -12.796881 0
M  V30 39 H 7.928732 4.945029 -20.411353 0
M  V30 40 H 5.271821 4.198420 -12.391831 0
M  V30 41 H 10.336089 6.169360 -10.993131 0
M  V30 42 H 9.920824 4.614269 -11.674284 0
M  V30 43 H 7.051157 5.177102 -8.922183 0
M  V30 44 H 8.281992 5.618241 -16.202107 0
M  V30 45 H 9.897807 5.098784 -16.523627 0
M  V30 46 H 5.439578 3.916457 -18.977972 0
M  V30 47 H 6.197386 5.446051 -18.612506 0
M  V30 48 H 7.855761 6.844585 -11.884572 0
M  V30 49 H 9.319686 7.100064 -12.711357 0
M  V30 50 H 9.386852 2.844825 -16.595419 0
M  V30 51 H 6.361487 1.944351 -16.659458 0
M  V30 52 H 6.727774 1.039634 -21.417784 0
M  V30 53 H 5.544253 1.712305 -19.405688 0
M  V30 54 H 6.414630 -1.030715 -15.598395 0
M  V30 55 H 7.366335 -1.583290 -16.962872 0
M  V30 56 H 3.914716 8.105324 -21.517548 0
M  V30 57 H 8.500644 0.225082 -15.672988 0
M  V30 58 H 8.219365 0.747489 -17.326265 0
M  V30 59 H 9.309423 1.385562 -21.271630 0
M  V30 60 H 8.657110 -0.129351 -20.703688 0
M  V30 61 H 9.124704 1.105563 -19.544910 0
M  V30 62 H 9.163169 5.743219 -9.232070 0
M  V30 63 H 5.924875 2.862280 -14.105920 0
M  V30 64 H 6.231843 4.274529 -15.092119 0
M  V30 65 H 7.546266 6.130893 -14.122725 0
M  V30 66 H 5.464946 -0.486270 -20.044697 0
M  V30 67 H 7.035845 -0.809141 -19.309939 0
M  V30 68 H 9.834871 4.169304 -14.015073 0
M  V30 69 H 10.179772 5.769299 -14.384875 0
M  V30 70 H 7.574314 10.284657 -22.163946 0
M  V30 71 H 8.387142 2.207310 -14.593696 0
M  V30 END ATOM
M  V30 BEGIN BOND
M  V30 1 1 5 2
M  V30 2 1 9 4
M  V30 3 1 10 6
M  V30 4 1 12 3
M  V30 5 1 12 8
M  V30 6 2 13 5
M  V30 7 2 13 7
M  V30 8 1 16 15
M  V30 9 2 19 11
M  V30 10 1 20 14
M  V30 11 1 20 18
M  V30 12 1 21 15
M  V30 13 1 22 6
M  V30 14 1 22 7
M  V30 15 1 23 2
M  V30 16 1 24 2
M  V30 17 1 24 10
M  V30 18 1 25 3
M  V30 19 1 25 4
M  V30 20 1 26 9
M  V30 21 1 26 11
M  V30 22 1 27 16
M  V30 23 1 28 8
M  V30 24 1 28 24
M  V30 25 1 30 1
M  V30 26 1 30 29
M  V30 27 1 32 4
M  V30 28 1 32 15
M  V30 29 2 32 17
M  V30 30 1 33 12
M  V30 31 1 33 14
M  V30 32 1 33 23
M  V30 33 1 34 19
M  V30 34 2 34 29
M  V30 35 1 34 31
M  V30 36 1 35 18
M  V30 37 1 35 27
M  V30 38 2 36 25
M  V30 39 1 37 11
M  V30 40 2 37 30
M  V30 41 1 2 38 CFG=1
M  V30 42 1 4 39 CFG=3
M  V30 43 1 40 5
M  V30 44 1 41 6
M  V30 45 1 42 6
M  V30 46 1 43 7
M  V30 47 1 44 8
M  V30 48 1 45 8
M  V30 49 1 46 9
M  V30 50 1 47 9
M  V30 51 1 48 10
M  V30 52 1 49 10
M  V30 53 1 12 50 CFG=3
M  V30 54 1 51 14
M  V30 55 1 15 52 CFG=3
M  V30 56 1 53 16
M  V30 57 1 54 18
M  V30 58 1 55 18
M  V30 59 1 56 19
M  V30 60 1 57 20
M  V30 61 1 58 20
M  V30 62 1 59 21
M  V30 63 1 60 21
M  V30 64 1 61 21
M  V30 65 1 62 22
M  V30 66 1 63 23
M  V30 67 1 64 23
M  V30 68 1 24 65 CFG=3
M  V30 69 1 66 27
M  V30 70 1 67 27
M  V30 71 1 68 28
M  V30 72 1 69 28
M  V30 73 1 70 29
M  V30 74 1 33 71 CFG=1
M  V30 END BOND
M  V30 END CTAB
M  END
>  <i_epik_Tot_Q>  (1) 
0

>  <i_epik_Tot_abs_Q>  (1) 
0

>  <i_i_glide_confnum>  (1) 
9

>  <i_i_glide_lignum>  (1) 
17

>  <i_i_glide_posenum>  (1) 
376

>  <i_i_glide_rotatable_bonds>  (1) 
3

>  <i_lp_mmshare_version>  (1) 
72125

>  <i_m_source_file_index>  (1) 
11

>  <i_f3d_flags>  (1) 
0

>  <num_sample>  (1) 
100

>  <b_lp_Chiralities_Consistent>  (1) 
1

>  <r_epik_Charging_Adjusted_Penalty>  (1) 
1.3520569381630938

>  <r_epik_Ionization_Penalty>  (1) 
1.3561301993789512

>  <r_epik_Ionization_Penalty_Charging>  (1) 
0

>  <r_epik_Ionization_Penalty_Neutral>  (1) 
1.3561301993789512

>  <r_epik_State_Penalty>  (1) 
1.3520569381630938

>  <r_glide_ring_energy>  (1) 
0

>  <r_i_docking_score>  (1) 
-2.364246521469858

>  <r_i_glide_ecoul>  (1) 
-0.42457601337136985

>  <r_i_glide_eff_state_penalty>  (1) 
1.3520569381630938

>  <r_i_glide_einternal>  (1) 
1.2916961057817069

>  <r_i_glide_emodel>  (1) 
-41.318194314623526

>  <r_i_glide_emodel_strain>  (1) 
0.20408157905297486

>  <r_i_glide_energy>  (1) 
-35.365089414176843

>  <r_i_glide_erotb>  (1) 
0.10399733719332836

>  <r_i_glide_esite>  (1) 
-0.035648138500439346

>  <r_i_glide_evdw>  (1) 
-34.940513400805472

>  <r_i_glide_gscore>  (1) 
-3.7163034596329521

>  <r_i_glide_gscore_strain>  (1) 
0

>  <r_i_glide_hbond>  (1) 
0

>  <r_i_glide_ligand_efficiency>  (1) 
-0.063898554634320481

>  <r_i_glide_ligand_efficiency_ln>  (1) 
-0.51274964470448214

>  <r_i_glide_ligand_efficiency_sa>  (1) 
-0.21292416004107556

>  <r_i_glide_lipo>  (1) 
-1.6565478798693192

>  <r_i_glide_metal>  (1) 
-0

>  <r_i_glide_rewards>  (1) 
-0.31739270641054296

>  <r_lp_Energy>  (1) 
32.404224999999997

>  <r_lp_tautomer_probability>  (1) 
0.99999998000000012

>  <s_epik_Chemistry_Notes>  (1) 
This compound has an ester and may undergo hydrolysis at high or low pH. This compound contains an acetal/aminal-like group ( X-CH(R)-Y where X, Y are N, S, or O) that may be acid/base labile, releasing an aldehyde.

>  <s_epik_cmdline>  (1) 
J2VwaWtfcHl0aG9uJywgJy1waHQnLCAnMS4wJywgJy1waCcsICc3LjQnLCAnLXRuJywgJzgnLCAnLW1hJywgJzUwMCcsICctaW1hZScsICc8aW5maWxlLm1hZT4nLCAnLW9tYWUnLCAnPG91dGZpbGUubWFlPic=

>  <s_epik_input>  (1) 
Q2xjKG4xKVtjSF1jKEYpW2NIXWMxU1tDSDJdW0NAQEhdKEMoTzIpPU8pQyg9TylbQ0BASF0oW0NIM10pW05IXVtDSDJdU1tDSDJdW0NIMl1bTkhdW0NASF0oW0NIMl0zKVtDQEBIXTJbQ0gyXVtDSDJdW0NAQEhdKFtDQEhdMzQpW0NIMl1bQ0gyXVtOSF1bQ0hdPUM9W0NIXTQ=

>  <s_glide_docking_method>  (1) 
confgen

>  <s_i_glide_gridfile>  (1) 
gpcr_drd2_6luq_protein_autoprepared_prepared

>  <s_lp_Force_Field>  (1) 
S-OPLS

>  <s_lp_Variant>  (1) 
DiffSBDD_10_num_sample_100-2

>  <s_m_source_file>  (1) 
generated__ligand_DiffSBDD_2026-05-06_prepared.sdf

>  <GenAI_Model>  (1) 
DiffSBDD

>  <Protein>  (1) 
generic_title2

$$$$
DiffSBDD_50_num_sample_100
     RDKit          3D

  0  0  0  0  0  0  0  0  0  0999 V3000
M  V30 BEGIN CTAB
M  V30 COUNTS 73 76 0 0 1
M  V30 BEGIN ATOM
M  V30 1 C 9.139475 0.850181 -18.894241 0
M  V30 2 C 8.757790 6.025623 -12.339707 0 CFG=1
M  V30 3 S 8.235043 0.679913 -16.477752 0
M  V30 4 C 4.932955 6.168240 -18.538081 0
M  V30 5 C 8.661709 2.415967 -17.082218 0 CFG=1
M  V30 6 C 6.464413 4.988492 -12.594156 0
M  V30 7 F 7.964028 4.655087 -23.059144 0
M  V30 8 C 8.665721 3.620296 -12.325726 0
M  V30 9 O 8.165680 5.368964 -10.002150 0
M  V30 10 O 5.725798 5.636338 -13.369914 0
M  V30 11 C 8.645161 5.492737 -17.932332 0
M  V30 12 C 8.726362 0.022036 -17.969778 0
M  V30 13 C 9.714566 7.968919 -10.268414 0
M  V30 14 O 8.286739 7.552556 -22.967928 0 CHG=-1
M  V30 15 C 5.716022 5.175954 -19.477031 0 CFG=2
M  V30 16 F 9.212645 5.011518 -21.315041 0
M  V30 17 C 5.067121 7.441345 -18.820313 0
M  V30 18 N 7.204157 7.186517 -22.527091 0 CHG=1
M  V30 19 O 9.950347 6.169193 -13.090286 0
M  V30 20 C 8.125121 4.729882 -14.560394 0
M  V30 21 O 6.686303 4.322792 -18.853476 0
M  V30 22 C 7.202589 6.227685 -21.451378 0 CHG=-1
M  V30 23 C 9.150451 2.318642 -18.601556 0
M  V30 24 C 9.663763 4.131600 -11.276602 0
M  V30 25 C 7.352802 4.702300 -17.647342 0 CFG=1
M  V30 26 C 7.195062 3.714685 -15.277315 0 CFG=2
M  V30 27 C 9.053905 8.447114 -11.584539 0
M  V30 28 C 9.204944 5.543575 -10.946267 0 CFG=1
M  V30 29 C 7.955757 4.943116 -21.753476 0
M  V30 30 N 8.637437 -1.350067 -18.059928 0
M  V30 31 O 6.103730 4.459734 -11.517419 0 CHG=-1
M  V30 32 C 10.234841 6.525184 -10.335013 0
M  V30 33 C 8.113737 7.426540 -12.251470 0
M  V30 34 O 7.026389 2.533470 -14.523028 0
M  V30 35 C 7.484449 3.406370 -16.788096 0 CFG=2
M  V30 36 C 6.299178 6.392166 -20.318428 0
M  V30 37 C 7.969850 4.844125 -12.995925 0 CFG=2
M  V30 38 O 6.122852 7.584498 -22.951079 0
M  V30 39 C 5.891938 7.584942 -19.894817 0
M  V30 40 H 9.467065 0.507663 -19.864290 0
M  V30 41 H 4.332989 5.801102 -17.720866 0
M  V30 42 H 9.520898 2.746649 -16.506996 0
M  V30 43 H 7.928986 2.969188 -11.892344 0
M  V30 44 H 9.198512 2.998376 -13.042540 0
M  V30 45 H 7.387047 5.044376 -10.456626 0
M  V30 46 H 9.191119 5.726433 -17.019112 0
M  V30 47 H 9.318561 4.962075 -18.601065 0
M  V30 48 H 8.408551 6.443900 -18.409604 0
M  V30 49 H 9.035174 8.055263 -9.427929 0
M  V30 50 H 10.543942 8.633593 -10.019586 0
M  V30 51 H 5.025917 4.589764 -20.084704 0
M  V30 52 H 4.602706 8.247549 -18.281840 0
M  V30 53 H 10.494868 6.790775 -12.635996 0
M  V30 54 H 7.961485 5.717900 -14.987834 0
M  V30 55 H 9.157475 4.480492 -14.806530 0
M  V30 56 H 8.490583 2.807695 -19.313569 0
M  V30 57 H 10.156608 2.720712 -18.725273 0
M  V30 58 H 10.634258 4.169623 -11.772508 0
M  V30 59 H 9.764451 3.482972 -10.408254 0
M  V30 60 H 6.716874 5.371050 -17.073194 0
M  V30 61 H 6.215390 4.170675 -15.253580 0
M  V30 62 H 8.507439 9.368973 -11.394666 0
M  V30 63 H 9.833109 8.695445 -12.298725 0
M  V30 64 H 7.490915 4.092056 -21.259170 0
M  V30 65 H 8.835716 -1.839689 -18.918650 0
M  V30 66 H 10.551817 6.192397 -9.347536 0
M  V30 67 H 11.120420 6.569314 -10.959296 0
M  V30 68 H 7.193227 7.393596 -11.671451 0
M  V30 69 H 7.832650 7.774255 -13.247501 0
M  V30 70 H 7.827935 2.034148 -14.546313 0
M  V30 71 H 6.634613 2.807257 -17.096174 0
M  V30 72 H 6.177467 8.529710 -20.332643 0
M  V30 73 H 8.250363 -1.906651 -17.307779 0
M  V30 END ATOM
M  V30 BEGIN BOND
M  V30 1 1 5 3
M  V30 2 2 10 6
M  V30 3 2 12 1
M  V30 4 1 12 3
M  V30 5 1 15 4
M  V30 6 2 17 4
M  V30 7 1 18 14
M  V30 8 1 2 19 CFG=3
M  V30 9 1 21 15
M  V30 10 1 22 18
M  V30 11 1 23 1
M  V30 12 1 23 5
M  V30 13 1 24 8
M  V30 14 1 25 11
M  V30 15 1 25 21
M  V30 16 1 26 20
M  V30 17 1 27 13
M  V30 18 1 28 2
M  V30 19 1 28 9 CFG=1
M  V30 20 1 28 24
M  V30 21 1 29 7
M  V30 22 1 29 16
M  V30 23 1 29 22
M  V30 24 1 30 12
M  V30 25 1 31 6
M  V30 26 1 32 13
M  V30 27 1 32 28
M  V30 28 1 33 2
M  V30 29 1 33 27
M  V30 30 1 34 26
M  V30 31 1 35 5
M  V30 32 1 35 25
M  V30 33 1 35 26
M  V30 34 1 36 15
M  V30 35 1 36 22
M  V30 36 1 37 2
M  V30 37 1 37 6
M  V30 38 1 37 8
M  V30 39 1 37 20 CFG=3
M  V30 40 2 38 18
M  V30 41 1 39 17
M  V30 42 2 39 36
M  V30 43 1 40 1
M  V30 44 1 41 4
M  V30 45 1 5 42 CFG=1
M  V30 46 1 43 8
M  V30 47 1 44 8
M  V30 48 1 45 9
M  V30 49 1 46 11
M  V30 50 1 47 11
M  V30 51 1 48 11
M  V30 52 1 49 13
M  V30 53 1 50 13
M  V30 54 1 15 51 CFG=3
M  V30 55 1 52 17
M  V30 56 1 53 19
M  V30 57 1 54 20
M  V30 58 1 55 20
M  V30 59 1 56 23
M  V30 60 1 57 23
M  V30 61 1 58 24
M  V30 62 1 59 24
M  V30 63 1 25 60 CFG=1
M  V30 64 1 26 61 CFG=3
M  V30 65 1 62 27
M  V30 66 1 63 27
M  V30 67 1 64 29
M  V30 68 1 65 30
M  V30 69 1 66 32
M  V30 70 1 67 32
M  V30 71 1 68 33
M  V30 72 1 69 33
M  V30 73 1 70 34
M  V30 74 1 35 71 CFG=3
M  V30 75 1 72 39
M  V30 76 1 73 30
M  V30 END BOND
M  V30 END CTAB
M  END
>  <i_epik_Tot_Q>  (1) 
-2

>  <i_epik_Tot_abs_Q>  (1) 
4

>  <i_i_glide_confnum>  (1) 
827

>  <i_i_glide_lignum>  (1) 
95

>  <i_i_glide_posenum>  (1) 
279

>  <i_i_glide_rotatable_bonds>  (1) 
14

>  <i_lp_mmshare_version>  (1) 
72125

>  <i_m_source_file_index>  (1) 
51

>  <i_f3d_flags>  (1) 
0

>  <num_sample>  (1) 
100

>  <b_lp_Chiralities_Consistent>  (1) 
1

>  <r_epik_Charging_Adjusted_Penalty>  (1) 
0.034577084899783249

>  <r_epik_Ionization_Penalty>  (1) 
0.017860666668860211

>  <r_epik_Ionization_Penalty_Charging>  (1) 
0.017835632133054159

>  <r_epik_Ionization_Penalty_Neutral>  (1) 
2.5034535806051729e-05

>  <r_epik_State_Penalty>  (1) 
0.01674145276672909

>  <r_glide_ring_energy>  (1) 
0

>  <r_i_docking_score>  (1) 
-2.3489809716795662

>  <r_i_glide_ecoul>  (1) 
2.7462501461545443

>  <r_i_glide_eff_state_penalty>  (1) 
0.01674145276672909

>  <r_i_glide_einternal>  (1) 
12.090176867083883

>  <r_i_glide_emodel>  (1) 
-14.847113302279158

>  <r_i_glide_emodel_strain>  (1) 
1.3755364744563678

>  <r_i_glide_energy>  (1) 
-19.151283716179936

>  <r_i_glide_erotb>  (1) 
0.41647013485751849

>  <r_i_glide_esite>  (1) 
-0.0016647024659140774

>  <r_i_glide_evdw>  (1) 
-21.89753386233448

>  <r_i_glide_gscore>  (1) 
-2.3657224244462953

>  <r_i_glide_gscore_strain>  (1) 
0

>  <r_i_glide_hbond>  (1) 
0

>  <r_i_glide_ligand_efficiency>  (1) 
-0.060230281325117083

>  <r_i_glide_ligand_efficiency_ln>  (1) 
-0.50368820011825466

>  <r_i_glide_ligand_efficiency_sa>  (1) 
-0.20425361924569954

>  <r_i_glide_lipo>  (1) 
-1.8694177233763796

>  <r_i_glide_metal>  (1) 
-0

>  <r_i_glide_rewards>  (1) 
-0.22817096226797767

>  <r_lp_Energy>  (1) 
37.244749999999996

>  <s_epik_Chemistry_Notes>  (1) 
This compound has an imine and may undergo hydrolysis.

>  <s_epik_cmdline>  (1) 
J2VwaWtfcHl0aG9uJywgJy1waHQnLCAnMS4wJywgJy1waCcsICc3LjQnLCAnLXRuJywgJzgnLCAnLW1hJywgJzUwMCcsICctaW1hZScsICc8aW5maWxlLm1hZT4nLCAnLW9tYWUnLCAnPG91dGZpbGUubWFlPic=

>  <s_epik_input>  (1) 
W0NIMl0xW0NIMl1bQ0gyXVtDSDJdW0NAQF0oW09IXSkoW0NAXTEyW09IXSlbQ0gyXVtDSDJdW0NAXTIoQyg9TylbT0hdKVtDSDJdW0NASF0oW09IXSlbQ0BIXShbQ0BIXTNTQyg9Ti9bSF0pXFtDSDJdW0NIMl0zKVtDQEBIXShbQ0gzXSlPW0NASF00W0NIXT1bQ0hdW0NIXT1DNFtDQEBIXShbTitdKFtPLV0pPU8pW0NIXShGKUY=

>  <s_glide_docking_method>  (1) 
confgen

>  <s_i_glide_gridfile>  (1) 
gpcr_drd2_6luq_protein_autoprepared_prepared

>  <s_lp_Force_Field>  (1) 
S-OPLS

>  <s_lp_Variant>  (1) 
DiffSBDD_50_num_sample_100-1

>  <s_m_source_file>  (1) 
generated__ligand_DiffSBDD_2026-05-06_prepared.sdf

>  <GenAI_Model>  (1) 
DiffSBDD

>  <Protein>  (1) 
generic_title2

$$$$
DiffSBDD_92_num_sample_100
     RDKit          3D

  0  0  0  0  0  0  0  0  0  0999 V3000
M  V30 BEGIN CTAB
M  V30 COUNTS 65 67 0 0 1
M  V30 BEGIN ATOM
M  V30 1 F 19.988353 17.820578 -11.895899 0
M  V30 2 C 18.685007 21.188365 -15.569697 0 CFG=1
M  V30 3 C 22.564855 22.240713 -19.525534 0
M  V30 4 C 19.188376 20.349913 -9.324479 0
M  V30 5 S 16.635063 21.391073 -17.891378 0
M  V30 6 F 19.873530 22.727900 -19.097060 0
M  V30 7 C 19.811164 18.407959 -10.687019 0
M  V30 8 C 20.156130 18.015871 -18.123350 0
M  V30 9 C 19.112291 20.548020 -11.895701 0 CFG=2
M  V30 10 C 21.969182 20.618417 -21.304151 0
M  V30 11 S 20.327473 21.364474 -14.801133 0
M  V30 12 C 20.089235 19.215322 -19.096365 0 CFG=1
M  V30 13 C 18.143721 20.641332 -17.939300 0
M  V30 14 N 18.985017 20.565007 -16.867220 0
M  V30 15 C 17.658187 18.917941 -19.742144 0
M  V30 16 C 20.047295 17.670070 -9.515325 0
M  V30 17 C 18.943412 21.002958 -20.413755 0 CFG=1
M  V30 18 C 20.015356 22.508174 -13.423076 0
M  V30 19 C 19.435166 19.597134 -8.155025 0
M  V30 20 C 17.102722 21.127960 -13.501856 0
M  V30 21 C 19.382295 19.754469 -10.604808 0
M  V30 22 C 20.127398 21.973374 -20.169146 0 CFG=2
M  V30 23 C 18.696552 19.966748 -19.247155 0 CFG=2
M  V30 24 C 19.864194 18.261793 -8.253490 0
M  V30 25 O 18.755928 21.641988 -9.215231 0 CHG=-1
M  V30 26 F 19.253546 20.158478 -6.934012 0
M  V30 27 C 19.983841 21.825541 -12.040405 0
M  V30 28 C 21.478397 21.238838 -19.974586 0
M  V30 29 C 17.706298 20.353045 -14.697624 0
M  V30 30 C 17.591638 20.724394 -12.100105 0
M  V30 31 O 17.834841 21.763613 -20.865395 0
M  V30 32 C 21.317051 20.147489 -18.891019 0
M  V30 33 H 18.298005 22.195427 -15.728373 0
M  V30 34 H 22.696463 23.040153 -20.255288 0
M  V30 35 H 22.318992 22.708592 -18.571444 0
M  V30 36 H 23.530833 21.750013 -19.400851 0
M  V30 37 H 20.135441 18.303977 -17.073669 0
M  V30 38 H 19.345878 17.307777 -18.292147 0
M  V30 39 H 21.083796 17.461630 -18.269431 0
M  V30 40 H 19.454317 19.887114 -12.684340 0
M  V30 41 H 22.094126 21.382261 -22.072072 0
M  V30 42 H 22.935853 20.130405 -21.177737 0
M  V30 43 H 21.291072 19.868683 -21.706908 0
M  V30 44 H 20.261878 18.738611 -20.061713 0
M  V30 45 H 19.869310 20.092540 -16.979380 0
M  V30 46 H 18.049902 18.317995 -20.563468 0
M  V30 47 H 17.368612 18.226781 -18.949848 0
M  V30 48 H 16.738623 19.369210 -20.110009 0
M  V30 49 H 20.364466 16.643463 -9.586817 0
M  V30 50 H 19.184771 20.416822 -21.300081 0
M  V30 51 H 20.826220 23.237056 -13.421337 0
M  V30 52 H 19.117898 23.092926 -13.608171 0
M  V30 53 H 16.025823 20.969780 -13.491852 0
M  V30 54 H 17.189797 22.201025 -13.652739 0
M  V30 55 H 20.211884 22.672433 -21.002773 0
M  V30 56 H 20.047931 17.688040 -7.357732 0
M  V30 57 H 21.008776 21.549869 -11.792646 0
M  V30 58 H 19.700956 22.580206 -11.309396 0
M  V30 59 H 16.867040 20.029950 -15.311110 0
M  V30 60 H 18.170463 19.421303 -14.380573 0
M  V30 61 H 17.116613 19.769236 -11.870665 0
M  V30 62 H 17.195180 21.426652 -11.366820 0
M  V30 63 H 17.058970 21.215836 -20.908411 0
M  V30 64 H 21.282768 20.622698 -17.912591 0
M  V30 65 H 22.224674 19.543121 -18.866059 0
M  V30 END ATOM
M  V30 BEGIN BOND
M  V30 1 1 7 1
M  V30 2 1 11 2
M  V30 3 1 12 8
M  V30 4 2 13 5
M  V30 5 1 14 2
M  V30 6 1 14 13
M  V30 7 1 16 7
M  V30 8 1 18 11
M  V30 9 2 19 4
M  V30 10 1 21 4
M  V30 11 2 21 7
M  V30 12 1 21 9
M  V30 13 1 22 6
M  V30 14 1 22 17
M  V30 15 1 23 12
M  V30 16 1 23 13
M  V30 17 1 23 15 CFG=3
M  V30 18 1 23 17
M  V30 19 2 24 16
M  V30 20 1 24 19
M  V30 21 1 25 4
M  V30 22 1 26 19
M  V30 23 1 27 9
M  V30 24 1 27 18
M  V30 25 1 28 3
M  V30 26 1 28 10
M  V30 27 1 28 22
M  V30 28 1 29 2
M  V30 29 1 29 20
M  V30 30 1 30 9
M  V30 31 1 30 20
M  V30 32 1 31 17
M  V30 33 1 32 12
M  V30 34 1 32 28
M  V30 35 1 2 33 CFG=3
M  V30 36 1 34 3
M  V30 37 1 35 3
M  V30 38 1 36 3
M  V30 39 1 37 8
M  V30 40 1 38 8
M  V30 41 1 39 8
M  V30 42 1 9 40 CFG=3
M  V30 43 1 41 10
M  V30 44 1 42 10
M  V30 45 1 43 10
M  V30 46 1 12 44 CFG=3
M  V30 47 1 45 14
M  V30 48 1 46 15
M  V30 49 1 47 15
M  V30 50 1 48 15
M  V30 51 1 49 16
M  V30 52 1 17 50 CFG=3
M  V30 53 1 51 18
M  V30 54 1 52 18
M  V30 55 1 53 20
M  V30 56 1 54 20
M  V30 57 1 22 55 CFG=3
M  V30 58 1 56 24
M  V30 59 1 57 27
M  V30 60 1 58 27
M  V30 61 1 59 29
M  V30 62 1 60 29
M  V30 63 1 61 30
M  V30 64 1 62 30
M  V30 65 1 63 31
M  V30 66 1 64 32
M  V30 67 1 65 32
M  V30 END BOND
M  V30 END CTAB
M  END
>  <i_epik_Tot_Q>  (1) 
-1

>  <i_epik_Tot_abs_Q>  (1) 
1

>  <i_i_glide_confnum>  (1) 
57

>  <i_i_glide_lignum>  (1) 
187

>  <i_i_glide_posenum>  (1) 
30

>  <i_i_glide_rotatable_bonds>  (1) 
5

>  <i_lp_mmshare_version>  (1) 
72125

>  <i_m_source_file_index>  (1) 
93

>  <i_f3d_flags>  (1) 
0

>  <num_sample>  (1) 
100

>  <b_lp_Chiralities_Consistent>  (1) 
1

>  <r_epik_Charging_Adjusted_Penalty>  (1) 
1.873832089241678

>  <r_epik_Ionization_Penalty>  (1) 
0.93691654502727262

>  <r_epik_Ionization_Penalty_Charging>  (1) 
0.93691604462083899

>  <r_epik_Ionization_Penalty_Neutral>  (1) 
5.0040643357861175e-07

>  <r_epik_State_Penalty>  (1) 
0.93691604462083899

>  <r_glide_ring_energy>  (1) 
0

>  <r_i_docking_score>  (1) 
-2.3340916292926979

>  <r_i_glide_ecoul>  (1) 
-2.6049529452244036

>  <r_i_glide_eff_state_penalty>  (1) 
0.93691604462083899

>  <r_i_glide_einternal>  (1) 
5.5113335818450899

>  <r_i_glide_emodel>  (1) 
-26.802614162855939

>  <r_i_glide_emodel_strain>  (1) 
0.19785415728109967

>  <r_i_glide_energy>  (1) 
-25.469679974571257

>  <r_i_glide_erotb>  (1) 
0.34068725043507714

>  <r_i_glide_esite>  (1) 
0

>  <r_i_glide_evdw>  (1) 
-22.864727029346852

>  <r_i_glide_gscore>  (1) 
-3.271007673913537

>  <r_i_glide_gscore_strain>  (1) 
0

>  <r_i_glide_hbond>  (1) 
-0.32000000000000001

>  <r_i_glide_ligand_efficiency>  (1) 
-0.072940363415396808

>  <r_i_glide_ligand_efficiency_ln>  (1) 
-0.52266674073345309

>  <r_i_glide_ligand_efficiency_sa>  (1) 
-0.23157121923308738

>  <r_i_glide_lipo>  (1) 
-1.1499954035179687

>  <r_i_glide_metal>  (1) 
-0

>  <r_i_glide_rewards>  (1) 
-0.6077202275796425

>  <r_lp_Energy>  (1) 
80.447412999999997

>  <s_epik_Chemistry_Notes>  (1) 
This compound contains an acetal/aminal-like group ( X-CH(R)-Y where X, Y are N, S, or O) that may be acid/base labile, releasing an aldehyde.

>  <s_epik_cmdline>  (1) 
J2VwaWtfcHl0aG9uJywgJy1waHQnLCAnMS4wJywgJy1waCcsICc3LjQnLCAnLXRuJywgJzgnLCAnLW1hJywgJzUwMCcsICctaW1hZScsICc8aW5maWxlLm1hZT4nLCAnLW9tYWUnLCAnPG91dGZpbGUubWFlPic=

>  <s_epik_input>  (1) 
W09IXWMxYyhGKVtjSF1bY0hdYyhGKWMxW0NAQEhdKFtDSDJdW0NIMl1bQ0gyXTIpW0NIMl1bQ0gyXVNbQ0BIXTJbTkhdQyg9UylbQ0BdMyhbQ0gzXSlbQ0BIXShbQ0gzXSlbQ0gyXUMoW0NIM10pKFtDSDNdKVtDQEhdKEYpW0NAQEhdM1tPSF0=

>  <s_glide_docking_method>  (1) 
confgen

>  <s_i_glide_gridfile>  (1) 
gpcr_drd2_6luq_protein_autoprepared_prepared

>  <s_lp_Force_Field>  (1) 
S-OPLS

>  <s_lp_Variant>  (1) 
DiffSBDD_92_num_sample_100-2

>  <s_m_source_file>  (1) 
generated__ligand_DiffSBDD_2026-05-06_prepared.sdf

>  <GenAI_Model>  (1) 
DiffSBDD

>  <Protein>  (1) 
generic_title2

$$$$
DiffSBDD_52_num_sample_100
     RDKit          3D

  0  0  0  0  0  0  0  0  0  0999 V3000
M  V30 BEGIN CTAB
M  V30 COUNTS 52 54 0 0 1
M  V30 BEGIN ATOM
M  V30 1 C 8.773160 5.134671 -9.357218 0
M  V30 2 N 6.786098 6.266874 -20.386537 0
M  V30 3 C 8.706575 4.275446 -13.077293 0
M  V30 4 C 6.451346 5.476476 -21.579518 0
M  V30 5 N 9.034843 6.569374 -9.274672 0 CHG=1
M  V30 6 N 7.518437 2.433284 -14.900654 0 CHG=-1
M  V30 7 O 7.623697 6.568903 -18.292707 0
M  V30 8 C 6.608666 6.501623 -22.719466 0 CFG=2
M  V30 9 C 4.717361 8.017586 -21.972095 0
M  V30 10 C 7.169304 5.791580 -19.136241 0
M  V30 11 N 6.913016 0.549839 -16.073014 0
M  V30 12 C 9.173798 4.638953 -11.804170 0
M  V30 13 C 7.331556 4.031301 -13.284728 0
M  V30 14 C 8.050531 6.428917 -23.265991 0
M  V30 15 C 6.252122 7.858468 -22.058974 0
M  V30 16 N 6.779278 1.491237 -18.214228 0
M  V30 17 C 6.840451 7.698985 -20.653096 0
M  V30 18 C 6.888123 4.569284 -10.947553 0
M  V30 19 C 7.132848 2.409758 -17.344067 0
M  V30 20 C 7.434844 3.904500 -17.647955 0
M  V30 21 C 7.206572 1.819452 -16.054171 0
M  V30 22 O 6.879025 3.641122 -14.516872 0
M  V30 23 C 8.267161 4.776773 -10.733790 0
M  V30 24 O 6.635407 0.313917 -17.439152 0
M  V30 25 C 6.422634 4.189154 -12.221166 0
M  V30 26 O 6.308421 3.603768 -19.758787 0 CHG=-1
M  V30 27 N 6.969585 4.405193 -18.886700 0
M  V30 28 O 8.040033 4.600240 -16.824382 0
M  V30 29 C 6.815616 9.109216 -22.767041 0
M  V30 30 H 8.037844 4.854893 -8.600322 0
M  V30 31 H 9.687464 4.575888 -9.145409 0
M  V30 32 H 9.402217 4.169323 -13.895357 0
M  V30 33 H 7.125303 4.637786 -21.761691 0
M  V30 34 H 5.419296 5.126424 -21.534560 0
M  V30 35 H 9.370624 6.812372 -8.356363 0
M  V30 36 H 9.690097 6.852925 -9.985823 0
M  V30 37 H 5.923715 6.278534 -23.538379 0
M  V30 38 H 4.243249 7.190114 -21.444264 0
M  V30 39 H 4.445009 8.931394 -21.443370 0
M  V30 40 H 4.271253 8.071915 -22.965107 0
M  V30 41 H 10.229492 4.804031 -11.648657 0
M  V30 42 H 8.788210 6.516367 -22.467359 0
M  V30 43 H 8.224764 5.477914 -23.770376 0
M  V30 44 H 8.256274 7.218696 -23.982084 0
M  V30 45 H 6.289085 8.273338 -19.906467 0
M  V30 46 H 7.882985 8.018328 -20.624596 0
M  V30 47 H 6.190615 4.681117 -10.131365 0
M  V30 48 H 5.370121 4.011877 -12.381659 0
M  V30 49 H 7.905688 9.124193 -22.778004 0
M  V30 50 H 6.471973 9.168322 -23.799732 0
M  V30 51 H 6.498547 10.022728 -22.263595 0
M  V30 52 H 8.135763 7.072584 -9.425052 0
M  V30 END ATOM
M  V30 BEGIN BOND
M  V30 1 1 4 2
M  V30 2 1 5 1
M  V30 3 1 8 4
M  V30 4 1 10 2
M  V30 5 2 10 7
M  V30 6 2 12 3
M  V30 7 1 13 3
M  V30 8 1 14 8
M  V30 9 1 15 8
M  V30 10 1 15 9
M  V30 11 1 17 2
M  V30 12 1 17 15
M  V30 13 2 19 16
M  V30 14 1 20 19
M  V30 15 1 21 6
M  V30 16 2 21 11
M  V30 17 1 21 19
M  V30 18 1 22 6
M  V30 19 1 22 13
M  V30 20 1 23 1
M  V30 21 1 23 12
M  V30 22 2 23 18
M  V30 23 1 24 11
M  V30 24 1 24 16
M  V30 25 2 25 13
M  V30 26 1 25 18
M  V30 27 1 27 10
M  V30 28 1 27 20
M  V30 29 1 27 26
M  V30 30 2 28 20
M  V30 31 1 29 15
M  V30 32 1 30 1
M  V30 33 1 31 1
M  V30 34 1 32 3
M  V30 35 1 33 4
M  V30 36 1 34 4
M  V30 37 1 35 5
M  V30 38 1 36 5
M  V30 39 1 8 37 CFG=3
M  V30 40 1 38 9
M  V30 41 1 39 9
M  V30 42 1 40 9
M  V30 43 1 41 12
M  V30 44 1 42 14
M  V30 45 1 43 14
M  V30 46 1 44 14
M  V30 47 1 45 17
M  V30 48 1 46 17
M  V30 49 1 47 18
M  V30 50 1 48 25
M  V30 51 1 49 29
M  V30 52 1 50 29
M  V30 53 1 51 29
M  V30 54 1 52 5
M  V30 END BOND
M  V30 END CTAB
M  END
>  <i_epik_Tot_Q>  (1) 
-1

>  <i_epik_Tot_abs_Q>  (1) 
3

>  <i_i_glide_confnum>  (1) 
81

>  <i_i_glide_lignum>  (1) 
97

>  <i_i_glide_posenum>  (1) 
154

>  <i_i_glide_rotatable_bonds>  (1) 
8

>  <i_lp_mmshare_version>  (1) 
72125

>  <i_m_source_file_index>  (1) 
53

>  <i_f3d_flags>  (1) 
0

>  <num_sample>  (1) 
100

>  <b_lp_Chiralities_Consistent>  (1) 
1

>  <r_epik_Charging_Adjusted_Penalty>  (1) 
0.51570556824874214

>  <r_epik_Ionization_Penalty>  (1) 
0.2980209657670958

>  <r_epik_Ionization_Penalty_Charging>  (1) 
0.29800273114257281

>  <r_epik_Ionization_Penalty_Neutral>  (1) 
1.8234624523001942e-05

>  <r_epik_State_Penalty>  (1) 
0.21770283710616928

>  <r_glide_ring_energy>  (1) 
0.88900172443488756

>  <r_i_docking_score>  (1) 
-2.2678905885653755

>  <r_i_glide_ecoul>  (1) 
-6.2574050398600631

>  <r_i_glide_eff_state_penalty>  (1) 
0.21770283710616928

>  <r_i_glide_einternal>  (1) 
12.734894039049664

>  <r_i_glide_emodel>  (1) 
-31.500744579083197

>  <r_i_glide_emodel_strain>  (1) 
0.18819055853637678

>  <r_i_glide_energy>  (1) 
-32.046623781810112

>  <r_i_glide_erotb>  (1) 
0.84444989797040115

>  <r_i_glide_esite>  (1) 
-0.10000000000000001

>  <r_i_glide_evdw>  (1) 
-25.789218741950052

>  <r_i_glide_gscore>  (1) 
-2.4855934256715448

>  <r_i_glide_gscore_strain>  (1) 
0

>  <r_i_glide_hbond>  (1) 
-0.14854041918743527

>  <r_i_glide_ligand_efficiency>  (1) 
-0.07820312374363364

>  <r_i_glide_ligand_efficiency_ln>  (1) 
-0.51928943603813504

>  <r_i_glide_ligand_efficiency_sa>  (1) 
-0.24026477289875806

>  <r_i_glide_lipo>  (1) 
-1.0222046282736366

>  <r_i_glide_metal>  (1) 
-0

>  <r_i_glide_rewards>  (1) 
0.16877341689563807

>  <r_lp_Energy>  (1) 
53.846633999999995

>  <s_epik_cmdline>  (1) 
J2VwaWtfcHl0aG9uJywgJy1waHQnLCAnMS4wJywgJy1waCcsICc3LjQnLCAnLXRuJywgJzgnLCAnLW1hJywgJzUwMCcsICctaW1hZScsICc8aW5maWxlLm1hZT4nLCAnLW9tYWUnLCAnPG91dGZpbGUubWFlPic=

>  <s_epik_input>  (1) 
W05IMl1bQ0gyXWMoW2NIXVtjSF0xKVtjSF1bY0hdYzFPL049YzIvW25IXW9uYzJDKD1PKU4oW09IXSlDKD1PKU4oW0NIMl0zKVtDSDJdW0NASF0oW0NIM10pQzMoW0NIM10pW0NIM10=

>  <s_glide_docking_method>  (1) 
confgen

>  <s_i_glide_gridfile>  (1) 
gpcr_drd2_6luq_protein_autoprepared_prepared

>  <s_lp_Force_Field>  (1) 
S-OPLS

>  <s_lp_Variant>  (1) 
DiffSBDD_52_num_sample_100-1

>  <s_m_source_file>  (1) 
generated__ligand_DiffSBDD_2026-05-06_prepared.sdf

>  <GenAI_Model>  (1) 
DiffSBDD

>  <Protein>  (1) 
generic_title2

$$$$
DiffSBDD_52_num_sample_100
     RDKit          3D

  0  0  0  0  0  0  0  0  0  0999 V3000
M  V30 BEGIN CTAB
M  V30 COUNTS 52 54 0 0 1
M  V30 BEGIN ATOM
M  V30 1 C 9.834799 6.615926 -9.771594 0
M  V30 2 N 7.141848 5.388872 -19.929619 0
M  V30 3 C 7.194427 4.458957 -11.509467 0
M  V30 4 C 7.486627 6.694092 -20.481866 0
M  V30 5 N 9.434842 8.012374 -9.922524 0 CHG=1
M  V30 6 N 7.833472 2.345817 -13.996640 0 CHG=-1
M  V30 7 O 8.542920 5.709100 -18.154990 0
M  V30 8 C 6.341053 6.998255 -21.455884 0 CFG=2
M  V30 9 C 6.859505 5.160551 -23.099359 0
M  V30 10 C 7.720532 4.981079 -18.723438 0
M  V30 11 N 7.022655 0.364809 -14.833848 0
M  V30 12 C 7.865563 5.215163 -10.530310 0
M  V30 13 C 7.775991 4.273064 -12.777462 0
M  V30 14 C 5.224002 7.787669 -20.740672 0
M  V30 15 C 5.914047 5.595641 -21.958806 0
M  V30 16 N 6.918120 0.958351 -17.099083 0
M  V30 17 C 6.131538 4.681544 -20.734927 0
M  V30 18 C 9.699066 5.611272 -12.091860 0
M  V30 19 C 7.385111 1.963164 -16.393495 0
M  V30 20 C 7.831831 3.343711 -16.942689 0
M  V30 21 C 7.438131 1.584260 -15.027313 0
M  V30 22 O 7.120899 3.536612 -13.726943 0
M  V30 23 C 9.119358 5.792626 -10.820498 0
M  V30 24 O 6.682537 -0.058295 -16.139839 0
M  V30 25 C 9.028721 4.853150 -13.068213 0
M  V30 26 O 6.437609 2.912957 -18.852590 0 CHG=-1
M  V30 27 N 7.311279 3.717395 -18.202335 0
M  V30 28 O 8.585577 4.065336 -16.281884 0
M  V30 29 C 4.465495 5.517661 -22.485107 0
M  V30 30 H 9.580439 6.261852 -8.771254 0
M  V30 31 H 10.916486 6.569409 -9.878880 0
M  V30 32 H 6.234396 4.017930 -11.287009 0
M  V30 33 H 7.585468 7.469023 -19.720902 0
M  V30 34 H 8.440508 6.619015 -21.005478 0
M  V30 35 H 9.799449 8.583261 -9.177355 0
M  V30 36 H 9.705288 8.358937 -10.829712 0
M  V30 37 H 6.705572 7.615127 -22.278689 0
M  V30 38 H 7.895540 5.087458 -22.766984 0
M  V30 39 H 6.581711 4.186456 -23.503951 0
M  V30 40 H 6.831487 5.878588 -23.916035 0
M  V30 41 H 7.415930 5.356592 -9.556883 0
M  V30 42 H 4.795637 7.217823 -19.915291 0
M  V30 43 H 5.607319 8.721811 -20.329581 0
M  V30 44 H 4.416773 8.048315 -21.425039 0
M  V30 45 H 6.458219 3.703260 -21.091680 0
M  V30 46 H 5.199962 4.591835 -20.172703 0
M  V30 47 H 10.658130 6.052142 -12.319612 0
M  V30 48 H 9.475510 4.711745 -14.039679 0
M  V30 49 H 3.739630 5.738977 -21.703732 0
M  V30 50 H 4.301590 6.221331 -23.301864 0
M  V30 51 H 4.234942 4.519050 -22.857832 0
M  V30 52 H 8.398055 7.990828 -9.868522 0
M  V30 END ATOM
M  V30 BEGIN BOND
M  V30 1 1 4 2
M  V30 2 1 5 1
M  V30 3 1 8 4
M  V30 4 1 10 2
M  V30 5 2 10 7
M  V30 6 2 12 3
M  V30 7 1 13 3
M  V30 8 1 14 8
M  V30 9 1 15 8
M  V30 10 1 15 9
M  V30 11 1 17 2
M  V30 12 1 17 15
M  V30 13 2 19 16
M  V30 14 1 20 19
M  V30 15 1 21 6
M  V30 16 2 21 11
M  V30 17 1 21 19
M  V30 18 1 22 6
M  V30 19 1 22 13
M  V30 20 1 23 1
M  V30 21 1 23 12
M  V30 22 2 23 18
M  V30 23 1 24 11
M  V30 24 1 24 16
M  V30 25 2 25 13
M  V30 26 1 25 18
M  V30 27 1 27 10
M  V30 28 1 27 20
M  V30 29 1 27 26
M  V30 30 2 28 20
M  V30 31 1 29 15
M  V30 32 1 30 1
M  V30 33 1 31 1
M  V30 34 1 32 3
M  V30 35 1 33 4
M  V30 36 1 34 4
M  V30 37 1 35 5
M  V30 38 1 36 5
M  V30 39 1 8 37 CFG=3
M  V30 40 1 38 9
M  V30 41 1 39 9
M  V30 42 1 40 9
M  V30 43 1 41 12
M  V30 44 1 42 14
M  V30 45 1 43 14
M  V30 46 1 44 14
M  V30 47 1 45 17
M  V30 48 1 46 17
M  V30 49 1 47 18
M  V30 50 1 48 25
M  V30 51 1 49 29
M  V30 52 1 50 29
M  V30 53 1 51 29
M  V30 54 1 52 5
M  V30 END BOND
M  V30 END CTAB
M  END
>  <i_epik_Tot_Q>  (1) 
-1

>  <i_epik_Tot_abs_Q>  (1) 
3

>  <i_i_glide_confnum>  (1) 
81

>  <i_i_glide_lignum>  (1) 
97

>  <i_i_glide_posenum>  (1) 
154

>  <i_i_glide_rotatable_bonds>  (1) 
8

>  <i_lp_mmshare_version>  (1) 
72125

>  <i_m_source_file_index>  (1) 
53

>  <i_f3d_flags>  (1) 
0

>  <num_sample>  (1) 
100

>  <b_lp_Chiralities_Consistent>  (1) 
1

>  <r_epik_Charging_Adjusted_Penalty>  (1) 
0.51570556824874214

>  <r_epik_Ionization_Penalty>  (1) 
0.2980209657670958

>  <r_epik_Ionization_Penalty_Charging>  (1) 
0.29800273114257281

>  <r_epik_Ionization_Penalty_Neutral>  (1) 
1.8234624523001942e-05

>  <r_epik_State_Penalty>  (1) 
0.21770283710616928

>  <r_glide_ring_energy>  (1) 
0.88900172443488756

>  <r_i_docking_score>  (1) 
-2.2147604901038092

>  <r_i_glide_ecoul>  (1) 
-4.6668746804171679

>  <r_i_glide_eff_state_penalty>  (1) 
0.21770283710616928

>  <r_i_glide_einternal>  (1) 
17.605011089538195

>  <r_i_glide_emodel>  (1) 
-30.838476471687557

>  <r_i_glide_emodel_strain>  (1) 
0.053720334283141824

>  <r_i_glide_energy>  (1) 
-33.81340386386271

>  <r_i_glide_erotb>  (1) 
0.84444989797040115

>  <r_i_glide_esite>  (1) 
-0.10000000000000001

>  <r_i_glide_evdw>  (1) 
-29.146529183445541

>  <r_i_glide_gscore>  (1) 
-2.4324633272099785

>  <r_i_glide_gscore_strain>  (1) 
0

>  <r_i_glide_hbond>  (1) 
-0.19859898477146126

>  <r_i_glide_ligand_efficiency>  (1) 
-0.076371051382889965

>  <r_i_glide_ligand_efficiency_ln>  (1) 
-0.50712399075348835

>  <r_i_glide_ligand_efficiency_sa>  (1) 
-0.23463606615897128

>  <r_i_glide_lipo>  (1) 
-1.0249414092896521

>  <r_i_glide_metal>  (1) 
-0

>  <r_i_glide_rewards>  (1) 
0.20398483011558621

>  <r_lp_Energy>  (1) 
53.846633999999995

>  <s_epik_cmdline>  (1) 
J2VwaWtfcHl0aG9uJywgJy1waHQnLCAnMS4wJywgJy1waCcsICc3LjQnLCAnLXRuJywgJzgnLCAnLW1hJywgJzUwMCcsICctaW1hZScsICc8aW5maWxlLm1hZT4nLCAnLW9tYWUnLCAnPG91dGZpbGUubWFlPic=

>  <s_epik_input>  (1) 
W05IMl1bQ0gyXWMoW2NIXVtjSF0xKVtjSF1bY0hdYzFPL049YzIvW25IXW9uYzJDKD1PKU4oW09IXSlDKD1PKU4oW0NIMl0zKVtDSDJdW0NASF0oW0NIM10pQzMoW0NIM10pW0NIM10=

>  <s_glide_docking_method>  (1) 
confgen

>  <s_i_glide_gridfile>  (1) 
gpcr_drd2_6luq_protein_autoprepared_prepared

>  <s_lp_Force_Field>  (1) 
S-OPLS

>  <s_lp_Variant>  (1) 
DiffSBDD_52_num_sample_100-1

>  <s_m_source_file>  (1) 
generated__ligand_DiffSBDD_2026-05-06_prepared.sdf

>  <GenAI_Model>  (1) 
DiffSBDD

>  <Protein>  (1) 
generic_title2

$$$$
DiffSBDD_10_num_sample_100
     RDKit          3D

  0  0  0  0  0  0  0  0  0  0999 V3000
M  V30 BEGIN CTAB
M  V30 COUNTS 71 74 0 0 1
M  V30 BEGIN ATOM
M  V30 1 Cl 5.034970 1.506013 -19.873249 0
M  V30 2 C 8.263409 5.118205 -15.062091 0 CFG=1
M  V30 3 O 9.524546 3.255742 -18.652051 0
M  V30 4 C 9.786317 1.076547 -19.613540 0 CFG=1
M  V30 5 C 8.346310 4.656353 -13.608150 0
M  V30 6 C 5.925806 7.041528 -14.251229 0
M  V30 7 C 6.830199 6.074281 -12.095131 0
M  V30 8 C 7.422404 4.350426 -18.137708 0
M  V30 9 C 9.913065 0.597337 -18.134954 0
M  V30 10 C 5.664956 5.660520 -14.911784 0
M  V30 11 C 7.451638 -1.041948 -18.184435 0
M  V30 12 C 8.937269 4.521740 -18.406116 0 CFG=1
M  V30 13 C 7.699878 5.271271 -12.651583 0
M  V30 14 N 11.160262 5.067796 -17.398653 0
M  V30 15 C 12.123868 1.985797 -20.672506 0 CFG=2
M  V30 16 N 12.500658 2.719091 -19.452765 0
M  V30 17 O 11.238345 -0.230698 -20.962003 0
M  V30 18 C 13.191626 5.980289 -18.383147 0
M  V30 19 C 6.668009 -2.166478 -17.891985 0
M  V30 20 C 11.666280 5.835590 -18.522641 0
M  V30 21 C 11.704647 2.921214 -21.829041 0
M  V30 22 N 6.035208 6.969255 -12.791383 0
M  V30 23 C 9.403085 4.466865 -15.862475 0
M  V30 24 C 6.841140 4.978481 -15.693485 0 CFG=1
M  V30 25 C 9.225442 2.500788 -19.718789 0
M  V30 26 S 9.183763 -1.030738 -17.815539 0
M  V30 27 C 13.697889 3.522925 -19.656221 0
M  V30 28 C 6.780356 5.381748 -17.192072 0
M  V30 29 C 4.794521 -0.978170 -18.833295 0
M  V30 30 C 5.663022 0.104502 -19.094325 0
M  V30 31 F 4.509550 -3.189091 -17.961480 0
M  V30 32 C 11.068864 0.874174 -20.451444 0
M  V30 33 C 9.714600 5.128667 -17.216306 0 CFG=2
M  V30 34 C 5.309767 -2.129880 -18.220305 0
M  V30 35 S 14.074918 4.403488 -18.122109 0
M  V30 36 O 8.567867 2.874203 -20.690432 0
M  V30 37 N 6.978112 0.084203 -18.760880 0
M  V30 38 H 8.504733 6.173691 -15.034731 0
M  V30 39 H 9.042807 0.452335 -20.106825 0
M  V30 40 H 9.016784 3.837337 -13.391659 0
M  V30 41 H 5.093867 7.709421 -14.476382 0
M  V30 42 H 6.808206 7.526059 -14.668508 0
M  V30 43 H 6.639268 6.075531 -11.030895 0
M  V30 44 H 7.218538 3.349250 -17.754236 0
M  V30 45 H 6.907763 4.387768 -19.098608 0
M  V30 46 H 10.960430 0.551787 -17.834160 0
M  V30 47 H 9.427488 1.255959 -17.414957 0
M  V30 48 H 5.291242 4.966985 -14.157456 0
M  V30 49 H 4.811372 5.773068 -15.578173 0
M  V30 50 H 9.077088 5.159928 -19.279651 0
M  V30 51 H 11.453935 4.106421 -17.510205 0
M  V30 52 H 13.018891 1.461256 -21.011550 0
M  V30 53 H 12.692801 2.083466 -18.691123 0
M  V30 54 H 13.413084 6.627305 -17.533205 0
M  V30 55 H 13.601642 6.473067 -19.265060 0
M  V30 56 H 7.102123 -3.039463 -17.426486 0
M  V30 57 H 11.208949 6.825167 -18.540698 0
M  V30 58 H 11.405837 5.339986 -19.457984 0
M  V30 59 H 11.184208 2.378135 -22.619051 0
M  V30 60 H 12.571803 3.384972 -22.298773 0
M  V30 61 H 11.048223 3.723132 -21.490569 0
M  V30 62 H 5.356336 7.497041 -12.258740 0
M  V30 63 H 10.291508 4.568636 -15.234528 0
M  V30 64 H 9.211117 3.401848 -15.991336 0
M  V30 65 H 6.634778 3.909325 -15.654420 0
M  V30 66 H 14.538028 2.872214 -19.900282 0
M  V30 67 H 13.589859 4.247075 -20.463250 0
M  V30 68 H 7.179871 6.382159 -17.356680 0
M  V30 69 H 5.736225 5.444420 -17.497302 0
M  V30 70 H 3.751366 -0.923163 -19.106657 0
M  V30 71 H 9.453759 6.170684 -17.137864 0
M  V30 END ATOM
M  V30 BEGIN BOND
M  V30 1 1 5 2
M  V30 2 1 9 4
M  V30 3 1 10 6
M  V30 4 1 12 3
M  V30 5 1 12 8
M  V30 6 2 13 5
M  V30 7 2 13 7
M  V30 8 1 16 15
M  V30 9 2 19 11
M  V30 10 1 20 14
M  V30 11 1 20 18
M  V30 12 1 21 15
M  V30 13 1 22 6
M  V30 14 1 22 7
M  V30 15 1 23 2
M  V30 16 1 24 2
M  V30 17 1 24 10
M  V30 18 1 25 3
M  V30 19 1 25 4
M  V30 20 1 26 9
M  V30 21 1 26 11
M  V30 22 1 27 16
M  V30 23 1 28 8
M  V30 24 1 28 24
M  V30 25 1 30 1
M  V30 26 1 30 29
M  V30 27 1 32 4
M  V30 28 1 32 15
M  V30 29 2 32 17
M  V30 30 1 33 12
M  V30 31 1 33 14
M  V30 32 1 33 23
M  V30 33 1 34 19
M  V30 34 2 34 29
M  V30 35 1 34 31
M  V30 36 1 35 18
M  V30 37 1 35 27
M  V30 38 2 36 25
M  V30 39 1 37 11
M  V30 40 2 37 30
M  V30 41 1 2 38 CFG=1
M  V30 42 1 4 39 CFG=3
M  V30 43 1 40 5
M  V30 44 1 41 6
M  V30 45 1 42 6
M  V30 46 1 43 7
M  V30 47 1 44 8
M  V30 48 1 45 8
M  V30 49 1 46 9
M  V30 50 1 47 9
M  V30 51 1 48 10
M  V30 52 1 49 10
M  V30 53 1 12 50 CFG=3
M  V30 54 1 51 14
M  V30 55 1 15 52 CFG=3
M  V30 56 1 53 16
M  V30 57 1 54 18
M  V30 58 1 55 18
M  V30 59 1 56 19
M  V30 60 1 57 20
M  V30 61 1 58 20
M  V30 62 1 59 21
M  V30 63 1 60 21
M  V30 64 1 61 21
M  V30 65 1 62 22
M  V30 66 1 63 23
M  V30 67 1 64 23
M  V30 68 1 24 65 CFG=3
M  V30 69 1 66 27
M  V30 70 1 67 27
M  V30 71 1 68 28
M  V30 72 1 69 28
M  V30 73 1 70 29
M  V30 74 1 33 71 CFG=1
M  V30 END BOND
M  V30 END CTAB
M  END
>  <i_epik_Tot_Q>  (1) 
0

>  <i_epik_Tot_abs_Q>  (1) 
0

>  <i_i_glide_confnum>  (1) 
9

>  <i_i_glide_lignum>  (1) 
17

>  <i_i_glide_posenum>  (1) 
272

>  <i_i_glide_rotatable_bonds>  (1) 
3

>  <i_lp_mmshare_version>  (1) 
72125

>  <i_m_source_file_index>  (1) 
11

>  <i_f3d_flags>  (1) 
0

>  <num_sample>  (1) 
100

>  <b_lp_Chiralities_Consistent>  (1) 
1

>  <r_epik_Charging_Adjusted_Penalty>  (1) 
1.3520569381630938

>  <r_epik_Ionization_Penalty>  (1) 
1.3561301993789512

>  <r_epik_Ionization_Penalty_Charging>  (1) 
0

>  <r_epik_Ionization_Penalty_Neutral>  (1) 
1.3561301993789512

>  <r_epik_State_Penalty>  (1) 
1.3520569381630938

>  <r_glide_ring_energy>  (1) 
0

>  <r_i_docking_score>  (1) 
-2.1904887817047456

>  <r_i_glide_ecoul>  (1) 
-0.91694706793489589

>  <r_i_glide_eff_state_penalty>  (1) 
1.3520569381630938

>  <r_i_glide_einternal>  (1) 
2.3239559108758954

>  <r_i_glide_emodel>  (1) 
-39.166829162704886

>  <r_i_glide_emodel_strain>  (1) 
0.046440944051241217

>  <r_i_glide_energy>  (1) 
-33.890293018395418

>  <r_i_glide_erotb>  (1) 
0.10399733719332836

>  <r_i_glide_esite>  (1) 
-0.07111713962560641

>  <r_i_glide_evdw>  (1) 
-32.973345950460519

>  <r_i_glide_gscore>  (1) 
-3.5425457198678396

>  <r_i_glide_gscore_strain>  (1) 
0

>  <r_i_glide_hbond>  (1) 
0

>  <r_i_glide_ligand_efficiency>  (1) 
-0.059202399505533666

>  <r_i_glide_ligand_efficiency_ln>  (1) 
-0.47506566440879566

>  <r_i_glide_ligand_efficiency_sa>  (1) 
-0.19727552930221287

>  <r_i_glide_lipo>  (1) 
-1.6042722816597952

>  <r_i_glide_metal>  (1) 
-0

>  <r_i_glide_rewards>  (1) 
-0.18494427806250563

>  <r_lp_Energy>  (1) 
32.404224999999997

>  <r_lp_tautomer_probability>  (1) 
0.99999998000000012

>  <s_epik_Chemistry_Notes>  (1) 
This compound has an ester and may undergo hydrolysis at high or low pH. This compound contains an acetal/aminal-like group ( X-CH(R)-Y where X, Y are N, S, or O) that may be acid/base labile, releasing an aldehyde.

>  <s_epik_cmdline>  (1) 
J2VwaWtfcHl0aG9uJywgJy1waHQnLCAnMS4wJywgJy1waCcsICc3LjQnLCAnLXRuJywgJzgnLCAnLW1hJywgJzUwMCcsICctaW1hZScsICc8aW5maWxlLm1hZT4nLCAnLW9tYWUnLCAnPG91dGZpbGUubWFlPic=

>  <s_epik_input>  (1) 
Q2xjKG4xKVtjSF1jKEYpW2NIXWMxU1tDSDJdW0NAQEhdKEMoTzIpPU8pQyg9TylbQ0BASF0oW0NIM10pW05IXVtDSDJdU1tDSDJdW0NIMl1bTkhdW0NASF0oW0NIMl0zKVtDQEBIXTJbQ0gyXVtDSDJdW0NAQEhdKFtDQEhdMzQpW0NIMl1bQ0gyXVtOSF1bQ0hdPUM9W0NIXTQ=

>  <s_glide_docking_method>  (1) 
confgen

>  <s_i_glide_gridfile>  (1) 
gpcr_drd2_6luq_protein_autoprepared_prepared

>  <s_lp_Force_Field>  (1) 
S-OPLS

>  <s_lp_Variant>  (1) 
DiffSBDD_10_num_sample_100-2

>  <s_m_source_file>  (1) 
generated__ligand_DiffSBDD_2026-05-06_prepared.sdf

>  <GenAI_Model>  (1) 
DiffSBDD

>  <Protein>  (1) 
generic_title2

$$$$
DiffSBDD_67_num_sample_100
     RDKit          3D

  0  0  0  0  0  0  0  0  0  0999 V3000
M  V30 BEGIN CTAB
M  V30 COUNTS 79 83 0 0 1
M  V30 BEGIN ATOM
M  V30 1 C 14.458300 7.268261 -20.619974 0 CFG=2
M  V30 2 C 16.366218 8.821093 -21.591218 0 CFG=1
M  V30 3 C 16.520465 10.341027 -21.437311 0
M  V30 4 C 17.734711 8.131062 -21.862529 0 CFG=1
M  V30 5 C 11.499209 4.782508 -18.211165 0
M  V30 6 C 12.264588 6.101753 -20.228495 0
M  V30 7 C 8.555449 4.414161 -12.492638 0
M  V30 8 C 6.237975 5.066550 -12.912480 0
M  V30 9 C 18.200407 6.308374 -20.101171 0 CFG=2
M  V30 10 C 7.673807 2.755337 -15.144357 0
M  V30 11 C 10.827873 5.058517 -16.866826 0
M  V30 12 C 8.392450 4.724627 -11.130984 0
M  V30 13 C 8.871270 5.080520 -15.445513 0
M  V30 14 O 7.040334 2.033900 -14.343927 0 CHG=-1
M  V30 15 F 4.906170 5.823971 -11.079681 0
M  V30 16 C 8.918090 4.531726 -19.266903 0
M  V30 17 O 8.312991 2.352062 -16.144683 0
M  V30 18 C 18.513185 7.750259 -20.573087 0
M  V30 19 C 16.790243 5.866480 -20.549854 0 CFG=2
M  V30 20 C 7.476250 4.590761 -13.393675 0
M  V30 21 C 16.781224 5.760109 -22.093583 0
M  V30 22 N 9.895084 5.312147 -20.043200 0
M  V30 23 C 8.530345 5.144933 -17.901577 0
M  V30 24 N 9.390713 4.685775 -16.779758 0 CFG=1 CHG=1
M  V30 25 C 17.566077 6.898972 -22.774787 0
M  V30 26 C 11.063596 5.798176 -19.291568 0 CFG=1
M  V30 27 C 13.285097 7.620873 -18.351719 0
M  V30 28 C 7.656798 4.283115 -14.886754 0 CFG=2
M  V30 29 O 18.365261 6.194959 -18.701738 0
M  V30 30 C 15.734938 6.800532 -19.954560 0 CFG=1
M  V30 31 C 15.600561 8.250615 -20.396938 0 CFG=2
M  V30 32 O 9.433053 4.578124 -10.268230 0
M  V30 33 C 7.158804 5.192299 -10.659871 0
M  V30 34 C 9.214149 6.419107 -20.717936 0
M  V30 35 C 6.084588 5.364674 -11.543573 0
M  V30 36 C 13.125930 7.344901 -19.868572 0 CFG=1
M  V30 37 H 14.306742 7.004738 -21.662280 0
M  V30 38 H 15.740209 8.681080 -22.473322 0
M  V30 39 H 17.134599 10.582035 -20.570549 0
M  V30 40 H 16.979935 10.788314 -22.318256 0
M  V30 41 H 15.550385 10.820945 -21.300163 0
M  V30 42 H 18.351005 8.841133 -22.415223 0
M  V30 43 H 11.382606 3.745896 -18.529376 0
M  V30 44 H 12.569653 4.882908 -18.034689 0
M  V30 45 H 12.904855 5.219642 -20.278737 0
M  V30 46 H 11.928368 6.232294 -21.256200 0
M  V30 47 H 9.507799 4.048616 -12.847556 0
M  V30 48 H 5.409333 5.205481 -13.590529 0
M  V30 49 H 9.218225 4.858025 -9.391376 0
M  V30 50 H 18.925941 5.630143 -20.554003 0
M  V30 51 H 10.948757 6.111911 -16.607678 0
M  V30 52 H 11.370258 4.495570 -16.105452 0
M  V30 53 H 8.627022 6.144017 -15.466568 0
M  V30 54 H 9.697952 4.991346 -14.743761 0
M  V30 55 H 9.283299 3.514464 -19.126407 0
M  V30 56 H 8.017887 4.412742 -19.873359 0
M  V30 57 H 19.586030 7.834596 -20.749259 0
M  V30 58 H 18.290231 8.475088 -19.787730 0
M  V30 59 H 16.582756 4.872000 -20.155534 0
M  V30 60 H 15.769127 5.690023 -22.485776 0
M  V30 61 H 17.249814 4.817900 -22.381135 0
M  V30 62 H 7.513831 4.818681 -17.681259 0
M  V30 63 H 8.489904 6.227340 -17.942364 0
M  V30 64 H 17.092505 7.174040 -23.717372 0
M  V30 65 H 18.557168 6.529381 -23.042085 0
M  V30 66 H 10.757891 6.725145 -18.808079 0
M  V30 67 H 13.743034 6.788596 -17.822964 0
M  V30 68 H 13.892260 8.504605 -18.157912 0
M  V30 69 H 12.330227 7.823185 -17.873299 0
M  V30 70 H 6.767825 4.639028 -15.408060 0
M  V30 71 H 19.236926 6.484179 -18.481414 0
M  V30 72 H 15.695234 6.674348 -18.875071 0
M  V30 73 H 15.495588 8.960255 -19.580326 0
M  V30 74 H 7.034995 5.429128 -9.612452 0
M  V30 75 H 9.880380 6.951887 -21.395941 0
M  V30 76 H 8.383908 6.046968 -21.319359 0
M  V30 77 H 8.813581 7.146037 -20.010264 0
M  V30 78 H 12.601386 8.213878 -20.268169 0
M  V30 79 H 9.317685 3.666293 -16.772497 0
M  V30 END ATOM
M  V30 BEGIN BOND
M  V30 1 1 3 2
M  V30 2 1 4 2
M  V30 3 1 11 5
M  V30 4 2 12 7
M  V30 5 1 14 10
M  V30 6 2 17 10
M  V30 7 1 18 4
M  V30 8 1 18 9
M  V30 9 1 19 9
M  V30 10 1 20 7
M  V30 11 2 20 8
M  V30 12 1 21 19
M  V30 13 1 22 16
M  V30 14 1 23 16
M  V30 15 1 24 11
M  V30 16 1 24 13
M  V30 17 1 24 23
M  V30 18 1 25 4
M  V30 19 1 25 21
M  V30 20 1 26 5
M  V30 21 1 26 6
M  V30 22 1 26 22
M  V30 23 1 28 10
M  V30 24 1 28 13
M  V30 25 1 28 20
M  V30 26 1 29 9
M  V30 27 1 30 1
M  V30 28 1 30 19
M  V30 29 1 31 1
M  V30 30 1 31 2
M  V30 31 1 31 30
M  V30 32 1 32 12
M  V30 33 1 33 12
M  V30 34 1 34 22
M  V30 35 1 35 8
M  V30 36 1 35 15
M  V30 37 2 35 33
M  V30 38 1 36 1
M  V30 39 1 36 6
M  V30 40 1 36 27
M  V30 41 1 1 37 CFG=3
M  V30 42 1 2 38 CFG=3
M  V30 43 1 39 3
M  V30 44 1 40 3
M  V30 45 1 41 3
M  V30 46 1 4 42 CFG=3
M  V30 47 1 43 5
M  V30 48 1 44 5
M  V30 49 1 45 6
M  V30 50 1 46 6
M  V30 51 1 47 7
M  V30 52 1 48 8
M  V30 53 1 49 32
M  V30 54 1 9 50 CFG=3
M  V30 55 1 51 11
M  V30 56 1 52 11
M  V30 57 1 53 13
M  V30 58 1 54 13
M  V30 59 1 55 16
M  V30 60 1 56 16
M  V30 61 1 57 18
M  V30 62 1 58 18
M  V30 63 1 19 59 CFG=1
M  V30 64 1 60 21
M  V30 65 1 61 21
M  V30 66 1 62 23
M  V30 67 1 63 23
M  V30 68 1 64 25
M  V30 69 1 65 25
M  V30 70 1 26 66 CFG=1
M  V30 71 1 67 27
M  V30 72 1 68 27
M  V30 73 1 69 27
M  V30 74 1 28 70 CFG=3
M  V30 75 1 71 29
M  V30 76 1 30 72 CFG=1
M  V30 77 1 31 73 CFG=1
M  V30 78 1 74 33
M  V30 79 1 75 34
M  V30 80 1 76 34
M  V30 81 1 77 34
M  V30 82 1 36 78 CFG=3
M  V30 83 1 24 79 CFG=1
M  V30 END BOND
M  V30 END CTAB
M  END
>  <i_epik_Tot_Q>  (1) 
0

>  <i_epik_Tot_abs_Q>  (1) 
2

>  <i_i_glide_confnum>  (1) 
120

>  <i_i_glide_lignum>  (1) 
134

>  <i_i_glide_posenum>  (1) 
374

>  <i_i_glide_rotatable_bonds>  (1) 
9

>  <i_lp_mmshare_version>  (1) 
72125

>  <i_m_source_file_index>  (1) 
68

>  <i_f3d_flags>  (1) 
0

>  <num_sample>  (1) 
100

>  <b_lp_Chiralities_Consistent>  (1) 
1

>  <r_epik_Charging_Adjusted_Penalty>  (1) 
0.12241089881330544

>  <r_epik_Ionization_Penalty>  (1) 
0.01898901772236716

>  <r_epik_Ionization_Penalty_Charging>  (1) 
0.00080544074301080722

>  <r_epik_Ionization_Penalty_Neutral>  (1) 
0.018183576979356353

>  <r_epik_State_Penalty>  (1) 
0.12160545807029463

>  <r_glide_ring_energy>  (1) 
0.36222063080148631

>  <r_i_docking_score>  (1) 
-2.1873488438214226

>  <r_i_glide_ecoul>  (1) 
-1.8280774758716059

>  <r_i_glide_eff_state_penalty>  (1) 
0.12160545807029463

>  <r_i_glide_einternal>  (1) 
28.934395047343497

>  <r_i_glide_emodel>  (1) 
-11.431684591782522

>  <r_i_glide_emodel_strain>  (1) 
1.831102778514861

>  <r_i_glide_energy>  (1) 
-25.086083665176169

>  <r_i_glide_erotb>  (1) 
0.48522832276191719

>  <r_i_glide_esite>  (1) 
-0.047272329120515599

>  <r_i_glide_evdw>  (1) 
-23.258006189304563

>  <r_i_glide_gscore>  (1) 
-2.3089543018917174

>  <r_i_glide_gscore_strain>  (1) 
0

>  <r_i_glide_hbond>  (1) 
0

>  <r_i_glide_ligand_efficiency>  (1) 
-0.060759690106150628

>  <r_i_glide_ligand_efficiency_ln>  (1) 
-0.47722042238538204

>  <r_i_glide_ligand_efficiency_sa>  (1) 
-0.20062407639589205

>  <r_i_glide_lipo>  (1) 
-0.85426226102024561

>  <r_i_glide_metal>  (1) 
-0

>  <r_i_glide_rewards>  (1) 
-0.45553610366690478

>  <r_lp_Energy>  (1) 
56.711821999999998

>  <r_lp_tautomer_probability>  (1) 
0.99999999999736477

>  <s_epik_cmdline>  (1) 
J2VwaWtfcHl0aG9uJywgJy1waHQnLCAnMS4wJywgJy1waCcsICc3LjQnLCAnLXRuJywgJzgnLCAnLW1hJywgJzUwMCcsICctaW1hZScsICc8aW5maWxlLm1hZT4nLCAnLW9tYWUnLCAnPG91dGZpbGUubWFlPic=

>  <s_epik_input>  (1) 
W0NIM11bQ0BASF0oW0NAQEhdMTIpW0NAQEhdM1tDQEhdKFtDQEhdKFtDQEBIXShbQ0gyXTEpW09IXSlbQ0gyXVtDSDJdMilbQ0BIXTNbQ0BIXShbQ0gzXSlbQ0gyXVtDQEBIXTRbQ0gyXVtDSDJdTihbQ0gyXVtDSDJdTjRbQ0gzXSlbQ0gyXVtDQEBIXShDKD1PKVtPSF0pQyg9W0NIXUM1PU8pW0NIMl1DKEYpPVtDSF01

>  <s_glide_docking_method>  (1) 
confgen

>  <s_i_glide_gridfile>  (1) 
gpcr_drd2_6luq_protein_autoprepared_prepared

>  <s_lp_Force_Field>  (1) 
S-OPLS

>  <s_lp_Variant>  (1) 
DiffSBDD_67_num_sample_100-2

>  <s_m_source_file>  (1) 
generated__ligand_DiffSBDD_2026-05-06_prepared.sdf

>  <GenAI_Model>  (1) 
DiffSBDD

>  <Protein>  (1) 
generic_title2

$$$$
DiffSBDD_33_num_sample_100
     RDKit          3D

  0  0  0  0  0  0  0  0  0  0999 V3000
M  V30 BEGIN CTAB
M  V30 COUNTS 81 82 0 0 1
M  V30 BEGIN ATOM
M  V30 1 C 5.711980 6.153613 -15.145269 0
M  V30 2 C 9.182798 5.775634 -8.659121 0
M  V30 3 C 8.761288 6.097419 -11.434312 0
M  V30 4 C 9.170617 8.517603 -23.094771 0
M  V30 5 C 8.042486 5.614584 -16.113258 0
M  V30 6 C 8.535482 6.275375 -12.941421 0
M  V30 7 C 9.693405 6.920448 -10.761042 0
M  V30 8 C 7.007718 5.734512 -14.985128 0
M  V30 9 C 5.034896 6.564210 -16.398612 0
M  V30 10 C 5.527670 6.673401 -17.608639 0
M  V30 11 C 8.449124 4.165304 -16.470798 0
M  V30 12 C 6.863077 6.918682 -19.689845 0
M  V30 13 C 11.600639 7.660921 -20.099604 0
M  V30 14 C 7.684064 3.610195 -17.676944 0
M  V30 15 C 8.000548 9.347625 -22.538184 0
M  V30 16 C 10.429836 8.303118 -7.299864 0 CFG=2
M  V30 17 C 7.513884 5.320372 -13.601687 0
M  V30 18 C 12.564985 6.585322 -20.623755 0
M  V30 19 C 5.581065 6.925549 -18.897550 0
M  V30 20 C 8.250965 4.969322 -9.327580 0
M  V30 21 C 9.906452 7.625515 -22.067062 0 CFG=1
M  V30 22 C 8.187240 4.153054 -19.030492 0
M  V30 23 C 10.777555 7.511773 -6.027893 0
M  V30 24 O 9.042507 8.569276 -7.295049 0
M  V30 25 C 8.042058 5.119010 -10.708234 0
M  V30 26 N 11.663197 8.596582 -9.463685 0
M  V30 27 C 10.855913 8.456746 -21.189063 0
M  V30 28 C 9.907650 6.758967 -9.364961 0
M  V30 29 C 10.926989 7.637434 -8.618677 0 CFG=2
M  V30 30 C 7.053437 4.355970 -20.058480 0
M  V30 31 O 13.633858 7.178747 -21.331012 0
M  V30 32 O 9.018686 6.973081 -21.175851 0
M  V30 33 C 6.990853 5.756710 -20.708219 0 CFG=2
M  V30 34 C 8.129938 6.009346 -21.721646 0
M  V30 35 H 5.102528 6.172312 -14.253466 0
M  V30 36 H 9.337899 5.643099 -7.602457 0
M  V30 37 H 8.789581 7.894101 -23.899886 0
M  V30 38 H 9.889789 9.188216 -23.567681 0
M  V30 39 H 7.841566 6.169310 -17.009849 0
M  V30 40 H 8.937644 6.101065 -15.731560 0
M  V30 41 H 8.214422 7.306322 -13.096574 0
M  V30 42 H 9.499774 6.167988 -13.437044 0
M  V30 43 H 10.238723 7.668003 -11.313841 0
M  V30 44 H 3.983830 6.781311 -16.291689 0
M  V30 45 H 9.518121 4.127474 -16.687148 0
M  V30 46 H 8.301988 3.499513 -15.621903 0
M  V30 47 H 7.725264 6.974315 -19.029364 0
M  V30 48 H 6.864922 7.867244 -20.226317 0
M  V30 49 H 10.869938 7.190607 -19.440615 0
M  V30 50 H 12.152748 8.358810 -19.469066 0
M  V30 51 H 7.743309 2.521182 -17.688999 0
M  V30 52 H 6.634846 3.845737 -17.524950 0
M  V30 53 H 7.712666 10.121870 -23.250169 0
M  V30 54 H 8.233996 9.834312 -21.593121 0
M  V30 55 H 7.125441 8.721711 -22.371399 0
M  V30 56 H 10.933022 9.264280 -7.183941 0
M  V30 57 H 6.620998 5.290169 -12.979536 0
M  V30 58 H 7.901393 4.302324 -13.614033 0
M  V30 59 H 12.979695 6.024893 -19.785541 0
M  V30 60 H 12.051693 5.863391 -21.259496 0
M  V30 61 H 4.686268 7.181819 -19.445339 0
M  V30 62 H 7.693979 4.224452 -8.778543 0
M  V30 63 H 10.485959 6.877200 -22.607870 0
M  V30 64 H 8.738168 5.079614 -18.882948 0
M  V30 65 H 8.931495 3.468195 -19.438206 0
M  V30 66 H 11.834781 7.252247 -6.007111 0
M  V30 67 H 10.208458 6.590119 -5.928598 0
M  V30 68 H 10.571506 8.107272 -5.138771 0
M  V30 69 H 8.577889 7.893820 -7.779589 0
M  V30 70 H 7.328612 4.484168 -11.203967 0
M  V30 71 H 12.664899 8.553111 -9.282348 0
M  V30 72 H 11.530598 8.374552 -10.447114 0
M  V30 73 H 11.575555 8.969305 -21.827153 0
M  V30 74 H 10.273701 9.233594 -20.692221 0
M  V30 75 H 11.673659 6.907053 -8.310124 0
M  V30 76 H 7.138821 3.596819 -20.836974 0
M  V30 77 H 6.084024 4.161449 -19.599501 0
M  V30 78 H 13.281750 7.677777 -22.052259 0
M  V30 79 H 6.072668 5.757219 -21.297209 0
M  V30 80 H 7.687764 6.367258 -22.650462 0
M  V30 81 H 8.674481 5.096936 -21.965869 0
M  V30 END ATOM
M  V30 BEGIN BOND
M  V30 1 1 6 3
M  V30 2 2 7 3
M  V30 3 2 8 1
M  V30 4 1 8 5
M  V30 5 1 9 1
M  V30 6 2 10 9
M  V30 7 1 11 5
M  V30 8 1 14 11
M  V30 9 1 15 4
M  V30 10 1 17 6
M  V30 11 1 17 8
M  V30 12 1 18 13
M  V30 13 2 19 10
M  V30 14 1 19 12
M  V30 15 1 20 2
M  V30 16 1 21 4
M  V30 17 1 22 14
M  V30 18 1 23 16
M  V30 19 1 24 16
M  V30 20 1 25 3
M  V30 21 2 25 20
M  V30 22 1 27 13
M  V30 23 1 27 21
M  V30 24 2 28 2
M  V30 25 1 28 7
M  V30 26 1 29 16
M  V30 27 1 29 26
M  V30 28 1 29 28
M  V30 29 1 30 22
M  V30 30 1 31 18
M  V30 31 1 32 21
M  V30 32 1 33 12
M  V30 33 1 33 30
M  V30 34 1 34 32
M  V30 35 1 34 33
M  V30 36 1 35 1
M  V30 37 1 36 2
M  V30 38 1 37 4
M  V30 39 1 38 4
M  V30 40 1 39 5
M  V30 41 1 40 5
M  V30 42 1 41 6
M  V30 43 1 42 6
M  V30 44 1 43 7
M  V30 45 1 44 9
M  V30 46 1 45 11
M  V30 47 1 46 11
M  V30 48 1 47 12
M  V30 49 1 48 12
M  V30 50 1 49 13
M  V30 51 1 50 13
M  V30 52 1 51 14
M  V30 53 1 52 14
M  V30 54 1 53 15
M  V30 55 1 54 15
M  V30 56 1 55 15
M  V30 57 1 16 56 CFG=1
M  V30 58 1 57 17
M  V30 59 1 58 17
M  V30 60 1 59 18
M  V30 61 1 60 18
M  V30 62 1 61 19
M  V30 63 1 62 20
M  V30 64 1 21 63 CFG=3
M  V30 65 1 64 22
M  V30 66 1 65 22
M  V30 67 1 66 23
M  V30 68 1 67 23
M  V30 69 1 68 23
M  V30 70 1 69 24
M  V30 71 1 70 25
M  V30 72 1 71 26
M  V30 73 1 72 26
M  V30 74 1 73 27
M  V30 75 1 74 27
M  V30 76 1 29 75 CFG=1
M  V30 77 1 76 30
M  V30 78 1 77 30
M  V30 79 1 78 31
M  V30 80 1 33 79 CFG=3
M  V30 81 1 80 34
M  V30 82 1 81 34
M  V30 END BOND
M  V30 END CTAB
M  END
>  <i_epik_Tot_Q>  (1) 
0

>  <i_epik_Tot_abs_Q>  (1) 
0

>  <i_i_glide_confnum>  (1) 
1101

>  <i_i_glide_lignum>  (1) 
59

>  <i_i_glide_posenum>  (1) 
203

>  <i_i_glide_rotatable_bonds>  (1) 
14

>  <i_lp_mmshare_version>  (1) 
72125

>  <i_m_source_file_index>  (1) 
34

>  <i_f3d_flags>  (1) 
0

>  <num_sample>  (1) 
100

>  <b_lp_Chiralities_Consistent>  (1) 
1

>  <r_epik_Charging_Adjusted_Penalty>  (1) 
1.2129050419488003

>  <r_epik_Ionization_Penalty>  (1) 
1.2129053275801602

>  <r_epik_Ionization_Penalty_Charging>  (1) 
0

>  <r_epik_Ionization_Penalty_Neutral>  (1) 
1.2129053275801602

>  <r_epik_State_Penalty>  (1) 
1.2129050419488003

>  <r_glide_ring_energy>  (1) 
0

>  <r_i_docking_score>  (1) 
-2.1773655197682782

>  <r_i_glide_ecoul>  (1) 
0.12460429562512132

>  <r_i_glide_eff_state_penalty>  (1) 
1.2129050419488003

>  <r_i_glide_einternal>  (1) 
33.04822430585623

>  <r_i_glide_emodel>  (1) 
-19.857659896073553

>  <r_i_glide_emodel_strain>  (1) 
4.7754103798743088

>  <r_i_glide_energy>  (1) 
-36.064417126799817

>  <r_i_glide_erotb>  (1) 
1.0070902464162688

>  <r_i_glide_esite>  (1) 
0

>  <r_i_glide_evdw>  (1) 
-36.189021422424936

>  <r_i_glide_gscore>  (1) 
-3.3902705617170787

>  <r_i_glide_gscore_strain>  (1) 
0.19385259496857721

>  <r_i_glide_hbond>  (1) 
-0.046285409625830942

>  <r_i_glide_ligand_efficiency>  (1) 
-0.064040162346125834

>  <r_i_glide_ligand_efficiency_ln>  (1) 
-0.48104111635096064

>  <r_i_glide_ligand_efficiency_sa>  (1) 
-0.2074652656922352

>  <r_i_glide_lipo>  (1) 
-1.891356794210703

>  <r_i_glide_metal>  (1) 
-0

>  <r_i_glide_rewards>  (1) 
-0.86281077248791216

>  <r_lp_Energy>  (1) 
8.1818030000000004

>  <s_epik_cmdline>  (1) 
J2VwaWtfcHl0aG9uJywgJy1waHQnLCAnMS4wJywgJy1waCcsICc3LjQnLCAnLXRuJywgJzgnLCAnLW1hJywgJzUwMCcsICctaW1hZScsICc8aW5maWxlLm1hZT4nLCAnLW9tYWUnLCAnPG91dGZpbGUubWFlPic=

>  <s_epik_input>  (1) 
W0NIM11bQ0BIXShbT0hdKVtDQEhdKFtOSDJdKWMoW2NIXVtjSF1bY0hdMSlbY0hdYzFbQ0gyXVtDSDJdQ1wyPVtDSF1cW0NIXT1DPVtDSF1bQ0gyXVtDQEhdKFtDSDJdW0NIMl1bQ0gyXVtDSDJdW0NIMl0yKVtDSDJdT1tDQEBIXShbQ0gyXVtDSDNdKVtDSDJdW0NIMl1bQ0gyXVtPSF0=

>  <s_glide_docking_method>  (1) 
confgen

>  <s_i_glide_gridfile>  (1) 
gpcr_drd2_6luq_protein_autoprepared_prepared

>  <s_lp_Force_Field>  (1) 
S-OPLS

>  <s_lp_Variant>  (1) 
DiffSBDD_33_num_sample_100-2

>  <s_m_source_file>  (1) 
generated__ligand_DiffSBDD_2026-05-06_prepared.sdf

>  <GenAI_Model>  (1) 
DiffSBDD

>  <Protein>  (1) 
generic_title2

$$$$
DiffSBDD_55_num_sample_100
     RDKit          3D

  0  0  0  0  0  0  0  0  0  0999 V3000
M  V30 BEGIN CTAB
M  V30 COUNTS 50 53 0 0 1
M  V30 BEGIN ATOM
M  V30 1 O 11.478975 1.600976 -18.089187 0
M  V30 2 C 7.908389 5.214112 -11.330503 0
M  V30 3 C 7.394718 0.343093 -17.536684 0
M  V30 4 C 6.697644 0.207156 -14.577887 0
M  V30 5 C 8.571729 2.697409 -18.506490 0 CFG=2
M  V30 6 C 9.188043 1.382394 -18.975064 0 CFG=1
M  V30 7 S 5.470829 4.567728 -12.356605 0
M  V30 8 C 6.412429 5.392906 -11.057543 0
M  V30 9 C 8.032286 5.103992 -12.839816 0
M  V30 10 C 12.828348 0.570433 -19.680441 0
M  V30 11 N 7.135958 1.515347 -16.693043 0
M  V30 12 C 10.692285 1.601227 -19.270927 0 CFG=2
M  V30 13 C 8.862750 0.233090 -17.984675 0 CFG=2
M  V30 14 C 11.383966 0.569504 -20.165864 0
M  V30 15 C 12.835733 1.535378 -18.494302 0
M  V30 16 C 6.786683 3.671915 -14.568053 0
M  V30 17 C 7.508300 1.323888 -15.268296 0 CFG=1
M  V30 18 C 6.737047 4.844417 -13.608193 0 CFG=1
M  V30 19 C 8.957282 3.315395 -17.190182 0
M  V30 20 O 9.114645 5.219575 -13.410642 0
M  V30 21 O 9.018060 -1.030143 -18.596831 0
M  V30 22 C 7.456167 2.528204 -14.328365 0
M  V30 23 C 7.561554 2.756253 -17.368474 0 CFG=1
M  V30 24 H 8.490514 6.047903 -10.935067 0
M  V30 25 H 8.277314 4.294888 -10.876128 0
M  V30 26 H 6.764318 0.401231 -18.425155 0
M  V30 27 H 7.089886 -0.577525 -17.043894 0
M  V30 28 H 6.954819 0.119193 -13.521765 0
M  V30 29 H 5.625076 0.397634 -14.637275 0
M  V30 30 H 6.878574 -0.773584 -15.006129 0
M  V30 31 H 8.420208 3.406989 -19.317707 0
M  V30 32 H 8.692231 1.154968 -19.920558 0
M  V30 33 H 6.153872 6.451925 -11.091455 0
M  V30 34 H 6.138299 5.019406 -10.073642 0
M  V30 35 H 13.523942 0.884699 -20.458361 0
M  V30 36 H 13.117443 -0.429156 -19.356180 0
M  V30 37 H 10.816297 2.577932 -19.744123 0
M  V30 38 H 9.524099 0.268811 -17.118099 0
M  V30 39 H 10.965025 -0.425645 -20.044888 0
M  V30 40 H 11.295819 0.834953 -21.219426 0
M  V30 41 H 13.166269 2.527601 -18.804370 0
M  V30 42 H 13.479436 1.200546 -17.680612 0
M  V30 43 H 6.234839 3.789093 -15.482882 0
M  V30 44 H 8.555767 1.023032 -15.239696 0
M  V30 45 H 6.503212 5.751400 -14.165117 0
M  V30 46 H 9.061662 4.397735 -17.160743 0
M  V30 47 H 9.680901 2.767358 -16.597434 0
M  V30 48 H 8.359652 -1.119768 -19.265604 0
M  V30 49 H 8.003585 2.423300 -13.402912 0
M  V30 50 H 6.731675 3.446647 -17.504434 0
M  V30 END ATOM
M  V30 BEGIN BOND
M  V30 1 1 6 5
M  V30 2 1 8 2
M  V30 3 1 8 7
M  V30 4 1 9 2
M  V30 5 1 11 3
M  V30 6 1 12 1
M  V30 7 1 12 6
M  V30 8 1 13 3
M  V30 9 1 13 6
M  V30 10 1 14 10
M  V30 11 1 14 12
M  V30 12 1 15 1
M  V30 13 1 15 10
M  V30 14 1 17 4
M  V30 15 1 17 11
M  V30 16 1 18 7
M  V30 17 1 18 9
M  V30 18 1 18 16
M  V30 19 1 19 5
M  V30 20 2 20 9
M  V30 21 1 21 13
M  V30 22 2 22 16
M  V30 23 1 22 17
M  V30 24 1 23 5
M  V30 25 1 23 11
M  V30 26 1 23 19
M  V30 27 1 24 2
M  V30 28 1 25 2
M  V30 29 1 26 3
M  V30 30 1 27 3
M  V30 31 1 28 4
M  V30 32 1 29 4
M  V30 33 1 30 4
M  V30 34 1 5 31 CFG=3
M  V30 35 1 6 32 CFG=3
M  V30 36 1 33 8
M  V30 37 1 34 8
M  V30 38 1 35 10
M  V30 39 1 36 10
M  V30 40 1 12 37 CFG=3
M  V30 41 1 13 38 CFG=1
M  V30 42 1 39 14
M  V30 43 1 40 14
M  V30 44 1 41 15
M  V30 45 1 42 15
M  V30 46 1 43 16
M  V30 47 1 17 44 CFG=3
M  V30 48 1 18 45 CFG=3
M  V30 49 1 46 19
M  V30 50 1 47 19
M  V30 51 1 48 21
M  V30 52 1 49 22
M  V30 53 1 23 50 CFG=3
M  V30 END BOND
M  V30 END CTAB
M  END
>  <i_epik_Tot_Q>  (1) 
0

>  <i_epik_Tot_abs_Q>  (1) 
0

>  <i_i_glide_confnum>  (1) 
212

>  <i_i_glide_lignum>  (1) 
108

>  <i_i_glide_posenum>  (1) 
326

>  <i_i_glide_rotatable_bonds>  (1) 
5

>  <i_lp_mmshare_version>  (1) 
72125

>  <i_m_source_file_index>  (1) 
56

>  <i_f3d_flags>  (1) 
0

>  <num_sample>  (1) 
100

>  <b_lp_Chiralities_Consistent>  (1) 
1

>  <r_epik_Charging_Adjusted_Penalty>  (1) 
1.1351003249830234

>  <r_epik_Ionization_Penalty>  (1) 
1.13510036387319

>  <r_epik_Ionization_Penalty_Charging>  (1) 
0

>  <r_epik_Ionization_Penalty_Neutral>  (1) 
1.13510036387319

>  <r_epik_State_Penalty>  (1) 
1.1351003249830234

>  <r_glide_ring_energy>  (1) 
0

>  <r_i_docking_score>  (1) 
-2.1488934080262556

>  <r_i_glide_ecoul>  (1) 
-1.1358415804427473

>  <r_i_glide_eff_state_penalty>  (1) 
1.1351003249830234

>  <r_i_glide_einternal>  (1) 
5.7912035836669595

>  <r_i_glide_emodel>  (1) 
-27.498193180509332

>  <r_i_glide_emodel_strain>  (1) 
0.036816245739814235

>  <r_i_glide_energy>  (1) 
-25.416901596503887

>  <r_i_glide_erotb>  (1) 
0.4978175189556282

>  <r_i_glide_esite>  (1) 
0

>  <r_i_glide_evdw>  (1) 
-24.28106001606114

>  <r_i_glide_gscore>  (1) 
-3.2839937330092792

>  <r_i_glide_gscore_strain>  (1) 
0

>  <r_i_glide_hbond>  (1) 
0

>  <r_i_glide_ligand_efficiency>  (1) 
-0.093430148175054586

>  <r_i_glide_ligand_efficiency_ln>  (1) 
-0.5196219111488829

>  <r_i_glide_ligand_efficiency_sa>  (1) 
-0.26570291331767676

>  <r_i_glide_lipo>  (1) 
-0.99298956247877646

>  <r_i_glide_metal>  (1) 
-0

>  <r_i_glide_rewards>  (1) 
-1.4043924516166617

>  <r_lp_Energy>  (1) 
15.605067999999999

>  <r_lp_tautomer_probability>  (1) 
0.99995000000000001

>  <s_epik_cmdline>  (1) 
J2VwaWtfcHl0aG9uJywgJy1waHQnLCAnMS4wJywgJy1waCcsICc3LjQnLCAnLXRuJywgJzgnLCAnLW1hJywgJzUwMCcsICctaW1hZScsICc8aW5maWxlLm1hZT4nLCAnLW9tYWUnLCAnPG91dGZpbGUubWFlPic=

>  <s_epik_input>  (1) 
W0NIMl0xW0NIMl1bQ0gyXU9bQ0BASF0xW0NASF0yW0NASF0oW09IXSlbQ0gyXU4oW0NASF0oW0NASF0yMylbQ0gyXTMpW0NASF0oW0NIM10pXFtDSF09W0NIXVxbQ0BIXTRTW0NIMl1bQ0gyXUM0PU8=

>  <s_glide_docking_method>  (1) 
confgen

>  <s_i_glide_gridfile>  (1) 
gpcr_drd2_6luq_protein_autoprepared_prepared

>  <s_lp_Force_Field>  (1) 
S-OPLS

>  <s_lp_Variant>  (1) 
DiffSBDD_55_num_sample_100-9

>  <s_m_source_file>  (1) 
generated__ligand_DiffSBDD_2026-05-06_prepared.sdf

>  <GenAI_Model>  (1) 
DiffSBDD

>  <Protein>  (1) 
generic_title2

$$$$
DiffSBDD_55_num_sample_100
     RDKit          3D

  0  0  0  0  0  0  0  0  0  0999 V3000
M  V30 BEGIN CTAB
M  V30 COUNTS 50 53 0 0 1
M  V30 BEGIN ATOM
M  V30 1 O 13.167260 4.665737 -18.064533 0
M  V30 2 C 4.796503 10.079605 -22.380751 0
M  V30 3 C 8.213666 4.466981 -17.839056 0
M  V30 4 C 5.671875 5.720249 -18.904002 0
M  V30 5 C 10.624132 4.751244 -19.371233 0 CFG=2
M  V30 6 C 10.721304 4.535781 -17.864983 0 CFG=1
M  V30 7 S 7.434799 9.769305 -21.891652 0
M  V30 8 C 6.151131 10.216711 -23.083587 0
M  V30 9 C 4.983111 9.008810 -21.314869 0
M  V30 10 C 13.731457 6.661441 -16.925849 0
M  V30 11 N 8.025199 4.844363 -19.248086 0
M  V30 12 C 12.057002 5.023321 -17.252464 0 CFG=2
M  V30 13 C 9.456052 5.062538 -17.158192 0 CFG=2
M  V30 14 C 12.235007 6.534517 -17.119055 0
M  V30 15 C 14.288356 5.471444 -17.711051 0
M  V30 16 C 6.571916 7.149647 -21.738161 0
M  V30 17 C 7.053714 5.913524 -19.558365 0 CFG=1
M  V30 18 C 6.407134 8.516192 -21.091724 0 CFG=1
M  V30 19 C 10.183590 6.061347 -19.986572 0
M  V30 20 O 4.036280 8.569313 -20.668793 0
M  V30 21 O 9.434776 4.656093 -15.805007 0
M  V30 22 C 6.852198 6.011838 -21.070279 0
M  V30 23 C 9.265475 4.855249 -20.044823 0 CFG=1
M  V30 24 H 4.517448 11.012584 -21.891772 0
M  V30 25 H 4.003384 9.807890 -23.077368 0
M  V30 26 H 8.300773 3.380542 -17.795698 0
M  V30 27 H 7.331720 4.691639 -17.244781 0
M  V30 28 H 4.945771 6.432006 -19.295652 0
M  V30 29 H 5.281164 4.719765 -19.092483 0
M  V30 30 H 5.697057 5.879831 -17.826982 0
M  V30 31 H 11.384243 4.209955 -19.931447 0
M  V30 32 H 10.723116 3.451479 -17.741755 0
M  V30 33 H 6.319935 11.218870 -23.478952 0
M  V30 34 H 6.206531 9.513803 -23.912215 0
M  V30 35 H 13.982412 6.559863 -15.868930 0
M  V30 36 H 14.118607 7.619469 -17.274578 0
M  V30 37 H 12.195178 4.562252 -16.273104 0
M  V30 38 H 9.418478 6.150054 -17.191046 0
M  V30 39 H 11.941105 7.043338 -18.036626 0
M  V30 40 H 11.670170 6.962818 -16.291676 0
M  V30 41 H 14.988813 4.896472 -17.104570 0
M  V30 42 H 14.804010 5.790699 -18.617084 0
M  V30 43 H 6.448908 7.111728 -22.810974 0
M  V30 44 H 7.468173 6.853356 -19.197379 0
M  V30 45 H 6.618215 8.496883 -20.025957 0
M  V30 46 H 10.667433 6.363482 -20.912863 0
M  V30 47 H 9.907171 6.881408 -19.327776 0
M  V30 48 H 10.214025 4.970090 -15.369676 0
M  V30 49 H 6.943761 5.088532 -21.624214 0
M  V30 50 H 9.131869 4.373814 -21.011637 0
M  V30 END ATOM
M  V30 BEGIN BOND
M  V30 1 1 6 5
M  V30 2 1 8 2
M  V30 3 1 8 7
M  V30 4 1 9 2
M  V30 5 1 11 3
M  V30 6 1 12 1
M  V30 7 1 12 6
M  V30 8 1 13 3
M  V30 9 1 13 6
M  V30 10 1 14 10
M  V30 11 1 14 12
M  V30 12 1 15 1
M  V30 13 1 15 10
M  V30 14 1 17 4
M  V30 15 1 17 11
M  V30 16 1 18 7
M  V30 17 1 18 9
M  V30 18 1 18 16
M  V30 19 1 19 5
M  V30 20 2 20 9
M  V30 21 1 21 13
M  V30 22 2 22 16
M  V30 23 1 22 17
M  V30 24 1 23 5
M  V30 25 1 23 11
M  V30 26 1 23 19
M  V30 27 1 24 2
M  V30 28 1 25 2
M  V30 29 1 26 3
M  V30 30 1 27 3
M  V30 31 1 28 4
M  V30 32 1 29 4
M  V30 33 1 30 4
M  V30 34 1 5 31 CFG=3
M  V30 35 1 6 32 CFG=3
M  V30 36 1 33 8
M  V30 37 1 34 8
M  V30 38 1 35 10
M  V30 39 1 36 10
M  V30 40 1 12 37 CFG=1
M  V30 41 1 13 38 CFG=1
M  V30 42 1 39 14
M  V30 43 1 40 14
M  V30 44 1 41 15
M  V30 45 1 42 15
M  V30 46 1 43 16
M  V30 47 1 17 44 CFG=1
M  V30 48 1 18 45 CFG=1
M  V30 49 1 46 19
M  V30 50 1 47 19
M  V30 51 1 48 21
M  V30 52 1 49 22
M  V30 53 1 23 50 CFG=3
M  V30 END BOND
M  V30 END CTAB
M  END
>  <i_epik_Tot_Q>  (1) 
0

>  <i_epik_Tot_abs_Q>  (1) 
0

>  <i_i_glide_confnum>  (1) 
63

>  <i_i_glide_lignum>  (1) 
109

>  <i_i_glide_posenum>  (1) 
328

>  <i_i_glide_rotatable_bonds>  (1) 
5

>  <i_lp_mmshare_version>  (1) 
72125

>  <i_m_source_file_index>  (1) 
56

>  <i_f3d_flags>  (1) 
0

>  <num_sample>  (1) 
100

>  <b_lp_Chiralities_Consistent>  (1) 
1

>  <r_epik_Charging_Adjusted_Penalty>  (1) 
1.1351003249830234

>  <r_epik_Ionization_Penalty>  (1) 
1.13510036387319

>  <r_epik_Ionization_Penalty_Charging>  (1) 
0

>  <r_epik_Ionization_Penalty_Neutral>  (1) 
1.13510036387319

>  <r_epik_State_Penalty>  (1) 
1.1351003249830234

>  <r_glide_ring_energy>  (1) 
0.84612545809472284

>  <r_i_docking_score>  (1) 
-2.1367292268630544

>  <r_i_glide_ecoul>  (1) 
-0.68468090399050063

>  <r_i_glide_eff_state_penalty>  (1) 
1.1351003249830234

>  <r_i_glide_einternal>  (1) 
3.5412880655044505

>  <r_i_glide_emodel>  (1) 
-28.304309180805156

>  <r_i_glide_emodel_strain>  (1) 
0

>  <r_i_glide_energy>  (1) 
-24.635604165112095

>  <r_i_glide_erotb>  (1) 
0.4978175189556282

>  <r_i_glide_esite>  (1) 
0

>  <r_i_glide_evdw>  (1) 
-23.950923261121595

>  <r_i_glide_gscore>  (1) 
-3.271829551846078

>  <r_i_glide_gscore_strain>  (1) 
0

>  <r_i_glide_hbond>  (1) 
0

>  <r_i_glide_ligand_efficiency>  (1) 
-0.092901270733176278

>  <r_i_glide_ligand_efficiency_ln>  (1) 
-0.5166805018449242

>  <r_i_glide_ligand_efficiency_sa>  (1) 
-0.26419885622433065

>  <r_i_glide_lipo>  (1) 
-1.1111265391966185

>  <r_i_glide_metal>  (1) 
-0

>  <r_i_glide_rewards>  (1) 
-1.3582722329504331

>  <r_lp_Energy>  (1) 
16.200793000000001

>  <r_lp_tautomer_probability>  (1) 
0.99995000000000001

>  <s_epik_cmdline>  (1) 
J2VwaWtfcHl0aG9uJywgJy1waHQnLCAnMS4wJywgJy1waCcsICc3LjQnLCAnLXRuJywgJzgnLCAnLW1hJywgJzUwMCcsICctaW1hZScsICc8aW5maWxlLm1hZT4nLCAnLW9tYWUnLCAnPG91dGZpbGUubWFlPic=

>  <s_epik_input>  (1) 
W0NIMl0xW0NIMl1bQ0gyXU9bQ0BASF0xW0NASF0yW0NASF0oW09IXSlbQ0gyXU4oW0NASF0oW0NASF0yMylbQ0gyXTMpW0NASF0oW0NIM10pL1tDSF09W0NIXVxbQ0BIXTRTW0NIMl1bQ0gyXUM0PU8=

>  <s_glide_docking_method>  (1) 
confgen

>  <s_i_glide_gridfile>  (1) 
gpcr_drd2_6luq_protein_autoprepared_prepared

>  <s_lp_Force_Field>  (1) 
S-OPLS

>  <s_lp_Variant>  (1) 
DiffSBDD_55_num_sample_100-10

>  <s_m_source_file>  (1) 
generated__ligand_DiffSBDD_2026-05-06_prepared.sdf

>  <GenAI_Model>  (1) 
DiffSBDD

>  <Protein>  (1) 
generic_title2

$$$$
DiffSBDD_59_num_sample_100
     RDKit          3D

  0  0  0  0  0  0  0  0  0  0999 V3000
M  V30 BEGIN CTAB
M  V30 COUNTS 73 76 0 0 1
M  V30 BEGIN ATOM
M  V30 1 C 5.398817 4.396939 -12.853236 0
M  V30 2 N 9.060594 2.331814 -18.958913 0
M  V30 3 C 10.469427 1.945106 -18.754419 0
M  V30 4 C 8.120507 1.686540 -18.008352 0 CFG=1
M  V30 5 C 8.251163 6.171064 -12.801717 0
M  V30 6 C 6.881796 3.978679 -12.804024 0 CFG=2
M  V30 7 C 11.947874 7.854809 -3.726166 0
M  V30 8 C 10.080432 7.637231 -6.612192 0
M  V30 9 C 8.177005 4.802419 -10.777888 0
M  V30 10 C 11.093191 8.502865 -6.144814 0
M  V30 11 O 6.282387 1.336391 -13.703777 0
M  V30 12 O 12.634853 8.969315 -4.310495 0
M  V30 13 C 11.928895 9.102660 -7.091663 0
M  V30 14 C 9.034857 5.705560 -10.126274 0
M  V30 15 C 11.324805 2.098435 -20.021647 0
M  V30 16 C 7.787064 5.014769 -12.115046 0
M  V30 17 C 10.672589 7.974863 -8.830232 0
M  V30 18 C 9.118686 7.071344 -12.146322 0
M  V30 19 N 9.878882 7.359489 -7.923185 0
M  V30 20 C 8.937311 3.799835 -18.991703 0
M  V30 21 N 7.505797 1.392391 -15.599441 0
M  V30 22 C 7.834841 6.454078 -14.238492 0
M  V30 23 C 6.646873 1.919888 -18.417170 0
M  V30 24 O 8.305633 0.290644 -18.167375 0
M  V30 25 N 10.425149 7.769226 -10.212298 0
M  V30 26 C 7.034840 1.945533 -14.460191 0
M  V30 27 C 9.518689 6.849027 -10.810916 0
M  V30 28 C 11.758350 3.522518 -20.285977 0
M  V30 29 C 11.714496 8.843567 -8.453721 0
M  V30 30 C 7.464375 3.391709 -14.127051 0
M  V30 31 C 8.749904 5.806779 -20.532206 0
M  V30 32 C 11.260197 8.790385 -4.684914 0 CFG=2
M  V30 33 C 9.400884 4.430129 -20.323077 0 CFG=1
M  V30 34 C 8.417491 2.068735 -16.534544 0
M  V30 35 C 10.910737 4.552671 -20.418502 0
M  V30 36 H 5.034921 4.607185 -11.847155 0
M  V30 37 H 5.211702 5.285398 -13.450131 0
M  V30 38 H 4.777264 3.600256 -13.259905 0
M  V30 39 H 10.910297 2.497657 -17.923664 0
M  V30 40 H 10.547244 0.895008 -18.477826 0
M  V30 41 H 6.886175 3.143470 -12.105541 0
M  V30 42 H 11.786846 7.956468 -2.655131 0
M  V30 43 H 12.235718 6.871508 -4.090688 0
M  V30 44 H 9.411746 7.155223 -5.914355 0
M  V30 45 H 7.824896 3.934320 -10.252067 0
M  V30 46 H 12.716596 9.769324 -6.777583 0
M  V30 47 H 9.333613 5.498015 -9.117833 0
M  V30 48 H 12.230689 1.502761 -19.906942 0
M  V30 49 H 10.805347 1.700486 -20.894172 0
M  V30 50 H 9.480900 7.941030 -12.673391 0
M  V30 51 H 7.896225 4.083690 -18.867590 0
M  V30 52 H 9.463133 4.254810 -18.151031 0
M  V30 53 H 7.218915 0.451444 -15.828413 0
M  V30 54 H 7.834827 7.529314 -14.416421 0
M  V30 55 H 8.529545 5.991291 -14.939560 0
M  V30 56 H 6.827197 6.137263 -14.479002 0
M  V30 57 H 6.301545 2.929645 -18.204107 0
M  V30 58 H 6.499513 1.735217 -19.482003 0
M  V30 59 H 5.973022 1.249694 -17.881399 0
M  V30 60 H 8.573428 -0.077925 -17.340225 0
M  V30 61 H 10.910927 8.385105 -10.842499 0
M  V30 62 H 12.821515 3.694910 -20.370135 0
M  V30 63 H 12.333388 9.315888 -9.203011 0
M  V30 64 H 8.553323 3.403159 -14.065339 0
M  V30 65 H 7.164365 4.024949 -14.957600 0
M  V30 66 H 9.054068 6.245512 -21.483355 0
M  V30 67 H 7.662282 5.731429 -20.543333 0
M  V30 68 H 9.028051 6.502797 -19.739586 0
M  V30 69 H 10.634837 9.607964 -4.337664 0
M  V30 70 H 9.071966 3.792663 -21.145223 0
M  V30 71 H 9.434777 1.769285 -16.291589 0
M  V30 72 H 8.387718 3.151785 -16.453053 0
M  V30 73 H 11.304280 5.541419 -20.607294 0
M  V30 END ATOM
M  V30 BEGIN BOND
M  V30 1 1 3 2
M  V30 2 1 4 2
M  V30 3 1 6 1
M  V30 4 2 10 8
M  V30 5 1 12 7
M  V30 6 1 13 10
M  V30 7 2 14 9
M  V30 8 1 15 3
M  V30 9 2 16 5
M  V30 10 1 16 6
M  V30 11 1 16 9
M  V30 12 1 18 5
M  V30 13 1 19 8
M  V30 14 2 19 17
M  V30 15 1 20 2
M  V30 16 1 22 5
M  V30 17 1 23 4
M  V30 18 1 4 24 CFG=1
M  V30 19 1 25 17
M  V30 20 2 26 11
M  V30 21 1 26 21
M  V30 22 1 27 14
M  V30 23 2 27 18
M  V30 24 1 27 25
M  V30 25 1 28 15
M  V30 26 2 29 13
M  V30 27 1 29 17
M  V30 28 1 30 6
M  V30 29 1 30 26
M  V30 30 1 32 7
M  V30 31 1 32 10
M  V30 32 1 32 12
M  V30 33 1 33 20
M  V30 34 1 33 31
M  V30 35 1 34 4
M  V30 36 1 34 21
M  V30 37 2 35 28
M  V30 38 1 35 33
M  V30 39 1 36 1
M  V30 40 1 37 1
M  V30 41 1 38 1
M  V30 42 1 39 3
M  V30 43 1 40 3
M  V30 44 1 6 41 CFG=1
M  V30 45 1 42 7
M  V30 46 1 43 7
M  V30 47 1 44 8
M  V30 48 1 45 9
M  V30 49 1 46 13
M  V30 50 1 47 14
M  V30 51 1 48 15
M  V30 52 1 49 15
M  V30 53 1 50 18
M  V30 54 1 51 20
M  V30 55 1 52 20
M  V30 56 1 53 21
M  V30 57 1 54 22
M  V30 58 1 55 22
M  V30 59 1 56 22
M  V30 60 1 57 23
M  V30 61 1 58 23
M  V30 62 1 59 23
M  V30 63 1 60 24
M  V30 64 1 61 25
M  V30 65 1 62 28
M  V30 66 1 63 29
M  V30 67 1 64 30
M  V30 68 1 65 30
M  V30 69 1 66 31
M  V30 70 1 67 31
M  V30 71 1 68 31
M  V30 72 1 32 69 CFG=1
M  V30 73 1 33 70 CFG=3
M  V30 74 1 71 34
M  V30 75 1 72 34
M  V30 76 1 73 35
M  V30 END BOND
M  V30 END CTAB
M  END
>  <i_epik_Tot_Q>  (1) 
0

>  <i_epik_Tot_abs_Q>  (1) 
0

>  <i_i_glide_confnum>  (1) 
1203

>  <i_i_glide_lignum>  (1) 
117

>  <i_i_glide_posenum>  (1) 
60

>  <i_i_glide_rotatable_bonds>  (1) 
11

>  <i_lp_mmshare_version>  (1) 
72125

>  <i_m_source_file_index>  (1) 
60

>  <i_f3d_flags>  (1) 
0

>  <num_sample>  (1) 
100

>  <b_lp_Chiralities_Consistent>  (1) 
1

>  <r_epik_Charging_Adjusted_Penalty>  (1) 
0.21966515356122782

>  <r_epik_Ionization_Penalty>  (1) 
0.22519441393607559

>  <r_epik_Ionization_Penalty_Charging>  (1) 
0

>  <r_epik_Ionization_Penalty_Neutral>  (1) 
0.22519441393607559

>  <r_epik_State_Penalty>  (1) 
0.21966515356122782

>  <r_glide_ring_energy>  (1) 
0

>  <r_i_docking_score>  (1) 
-2.1256482788072959

>  <r_i_glide_ecoul>  (1) 
2.3416460969330357

>  <r_i_glide_eff_state_penalty>  (1) 
0.21966515356122782

>  <r_i_glide_einternal>  (1) 
19.068953671812075

>  <r_i_glide_emodel>  (1) 
-32.444026084303886

>  <r_i_glide_emodel_strain>  (1) 
0.00114298747737962

>  <r_i_glide_energy>  (1) 
-38.218379238473432

>  <r_i_glide_erotb>  (1) 
0.88460327515387938

>  <r_i_glide_esite>  (1) 
-0.037524390464441712

>  <r_i_glide_evdw>  (1) 
-40.560025335406465

>  <r_i_glide_gscore>  (1) 
-2.3453134323685236

>  <r_i_glide_gscore_strain>  (1) 
0

>  <r_i_glide_hbond>  (1) 
0

>  <r_i_glide_ligand_efficiency>  (1) 
-0.060732807965922737

>  <r_i_glide_ligand_efficiency_ln>  (1) 
-0.46662697341996201

>  <r_i_glide_ligand_efficiency_sa>  (1) 
-0.19866104206048313

>  <r_i_glide_lipo>  (1) 
-1.9845996007108633

>  <r_i_glide_metal>  (1) 
-0

>  <r_i_glide_rewards>  (1) 
0.46896163588327022

>  <r_lp_Energy>  (1) 
28.775382

>  <r_lp_tautomer_probability>  (1) 
0.99999977220005165

>  <s_epik_cmdline>  (1) 
J2VwaWtfcHl0aG9uJywgJy1waHQnLCAnMS4wJywgJy1waCcsICc3LjQnLCAnLXRuJywgJzgnLCAnLW1hJywgJzUwMCcsICctaW1hZScsICc8aW5maWxlLm1hZT4nLCAnLW9tYWUnLCAnPG91dGZpbGUubWFlPic=

>  <s_epik_input>  (1) 
W0NIMl0xW0NAQEhdKFtDSDNdKVtDSF09W0NIXVtDSDJdW0NIMl1OMVtDQEBdKFtDSDNdKShbT0hdKVtDSDJdW05IXUMoPU8pW0NIMl1bQ0BIXShbQ0gzXSljKGMyW0NIM10pW2NIXVtjSF1jKFtjSF0yKVtOSF1jKFtjSF1bY0hdMyluW2NIXWMzW0NASF00W0NIMl1PNA==

>  <s_glide_docking_method>  (1) 
confgen

>  <s_i_glide_gridfile>  (1) 
gpcr_drd2_6luq_protein_autoprepared_prepared

>  <s_lp_Force_Field>  (1) 
S-OPLS

>  <s_lp_Variant>  (1) 
DiffSBDD_59_num_sample_100-1

>  <s_m_source_file>  (1) 
generated__ligand_DiffSBDD_2026-05-06_prepared.sdf

>  <GenAI_Model>  (1) 
DiffSBDD

>  <Protein>  (1) 
generic_title2

$$$$
DiffSBDD_66_num_sample_100
     RDKit          3D

  0  0  0  0  0  0  0  0  0  0999 V3000
M  V30 BEGIN CTAB
M  V30 COUNTS 88 91 0 0 1
M  V30 BEGIN ATOM
M  V30 1 C 6.191805 2.673438 -19.396122 0
M  V30 2 F 7.081779 7.942353 -12.291561 0
M  V30 3 C 7.397055 2.200481 -17.183136 0 CFG=1
M  V30 4 N 7.497242 -0.073096 -19.147595 0
M  V30 5 C 7.033553 -2.355332 -19.938763 0
M  V30 6 F 7.617442 0.193012 -15.901026 0
M  V30 7 O 5.460936 5.516915 -12.457498 0
M  V30 8 N 5.804319 -2.454914 -22.018297 0
M  V30 9 O 9.034915 7.320106 -11.353031 0
M  V30 10 C 6.711214 -0.245564 -18.003736 0
M  V30 11 O 5.839784 -4.255484 -20.703810 0
M  V30 12 C 8.599894 2.602649 -16.291368 0
M  V30 13 C 5.029008 -4.548563 -21.887040 0
M  V30 14 C 9.344231 3.890143 -16.629001 0
M  V30 15 O 8.208974 -4.280676 -19.049030 0
M  V30 16 C 7.504210 -0.965987 -20.230717 0
M  V30 17 O 5.878867 -1.140817 -17.871078 0
M  V30 18 C 7.539685 -3.089874 -18.680320 0
M  V30 19 C 10.741669 3.708429 -17.222578 0
M  V30 20 C 6.458851 5.162021 -11.836829 0
M  V30 21 C 5.011528 -3.293678 -22.837609 0
M  V30 22 O 12.081765 1.433802 -18.851457 0
M  V30 23 C 7.434841 6.457239 -14.690376 0
M  V30 24 C 8.403078 5.369275 -8.873651 0
M  V30 25 C 8.319562 7.468463 -12.551312 0 CFG=1
M  V30 26 O 7.917524 -0.617336 -21.340440 0
M  V30 27 C 7.546024 2.402731 -18.692417 0 CFG=1
M  V30 28 N 6.435566 4.967113 -10.503206 0
M  V30 29 C 6.499126 5.760830 -16.963972 0 CFG=2
M  V30 30 C 9.759380 0.959498 -18.865653 0
M  V30 31 C 10.798662 3.481742 -18.760188 0 CFG=1
M  V30 32 O 6.148337 7.146255 -17.086433 0
M  V30 33 C 11.982439 4.271658 -19.354537 0
M  V30 34 C 8.821708 5.119209 -16.402068 0
M  V30 35 C 8.250866 6.171494 -13.405803 0 CFG=1
M  V30 36 C 8.283166 1.193827 -19.302784 0 CFG=1
M  V30 37 C 6.885541 0.775560 -16.854211 0 CFG=2
M  V30 38 C 6.258881 -2.974367 -20.865928 0
M  V30 39 C 7.542959 4.421754 -9.719250 0
M  V30 40 C 5.077932 6.233511 -16.803079 0
M  V30 41 C 7.433500 5.387224 -15.814702 0 CFG=1
M  V30 42 C 10.848414 1.998333 -19.256772 0 CFG=1
M  V30 43 C 7.792244 4.941349 -12.587697 0
M  V30 44 H 5.481514 1.853879 -19.295131 0
M  V30 45 H 5.703596 3.562705 -19.000328 0
M  V30 46 H 6.338613 2.841903 -20.463583 0
M  V30 47 H 6.634859 2.898831 -16.874495 0
M  V30 48 H 6.028736 -1.512655 -22.314006 0
M  V30 49 H 8.409279 7.445223 -10.641004 0
M  V30 50 H 8.245198 2.668629 -15.261976 0
M  V30 51 H 9.335006 1.808144 -16.250294 0
M  V30 52 H 5.438649 -5.417124 -22.402835 0
M  V30 53 H 4.016796 -4.801696 -21.569822 0
M  V30 54 H 7.600942 -4.798372 -19.558210 0
M  V30 55 H 6.705265 -3.390793 -18.045885 0
M  V30 56 H 8.233408 -2.496154 -18.083838 0
M  V30 57 H 11.292657 4.619073 -16.979597 0
M  V30 58 H 11.281728 2.925168 -16.692040 0
M  V30 59 H 5.496952 -3.482124 -23.794979 0
M  V30 60 H 4.011517 -2.886372 -22.989425 0
M  V30 61 H 12.130473 1.462812 -17.908135 0
M  V30 62 H 7.801338 7.394838 -15.091521 0
M  V30 63 H 6.408890 6.686129 -14.412099 0
M  V30 64 H 8.927852 4.795362 -8.109600 0
M  V30 65 H 9.178683 5.856441 -9.452223 0
M  V30 66 H 7.834814 6.129470 -8.348807 0
M  V30 67 H 8.849042 8.233896 -13.091652 0
M  V30 68 H 8.090243 3.315995 -18.870527 0
M  V30 69 H 5.570255 5.142625 -10.009368 0
M  V30 70 H 6.726621 5.278645 -17.911228 0
M  V30 71 H 10.066177 0.041025 -19.369350 0
M  V30 72 H 9.833573 0.672460 -17.824691 0
M  V30 73 H 9.950834 3.979192 -19.217523 0
M  V30 74 H 12.936903 3.952871 -18.934196 0
M  V30 75 H 12.038132 4.148596 -20.436775 0
M  V30 76 H 11.878954 5.339710 -19.159998 0
M  V30 77 H 9.406266 5.991648 -16.656062 0
M  V30 78 H 9.270636 5.945565 -13.716531 0
M  V30 79 H 8.351170 1.464601 -20.357151 0
M  V30 80 H 5.901813 0.880609 -16.394090 0
M  V30 81 H 7.034812 3.769264 -9.011178 0
M  V30 82 H 8.187973 3.769311 -10.291613 0
M  V30 83 H 4.378341 6.106935 -17.625583 0
M  V30 84 H 4.652181 6.310382 -15.806648 0
M  V30 85 H 7.024591 4.481925 -15.376536 0
M  V30 86 H 10.869505 2.026883 -20.347349 0
M  V30 87 H 7.685210 4.065429 -13.225504 0
M  V30 88 H 8.645521 4.726697 -11.956867 0
M  V30 END ATOM
M  V30 BEGIN BOND
M  V30 1 1 10 4
M  V30 2 1 12 3
M  V30 3 1 13 11
M  V30 4 1 14 12
M  V30 5 1 16 4
M  V30 6 1 16 5
M  V30 7 2 17 10
M  V30 8 1 18 5
M  V30 9 1 18 15
M  V30 10 1 19 14
M  V30 11 2 20 7
M  V30 12 1 21 8
M  V30 13 1 21 13
M  V30 14 1 25 2
M  V30 15 1 25 9
M  V30 16 2 26 16
M  V30 17 1 27 1
M  V30 18 1 27 3
M  V30 19 1 28 20
M  V30 20 1 31 19
M  V30 21 1 32 29
M  V30 22 1 33 31
M  V30 23 2 34 14
M  V30 24 1 35 23
M  V30 25 1 35 25
M  V30 26 1 36 4
M  V30 27 1 36 27
M  V30 28 1 36 30
M  V30 29 1 37 3
M  V30 30 1 37 6
M  V30 31 1 37 10
M  V30 32 2 38 5
M  V30 33 1 38 8
M  V30 34 1 38 11
M  V30 35 1 39 24
M  V30 36 1 39 28
M  V30 37 1 40 29
M  V30 38 1 40 32
M  V30 39 1 41 23
M  V30 40 1 41 29
M  V30 41 1 41 34
M  V30 42 1 42 22
M  V30 43 1 42 30
M  V30 44 1 42 31
M  V30 45 1 43 20
M  V30 46 1 43 35
M  V30 47 1 44 1
M  V30 48 1 45 1
M  V30 49 1 46 1
M  V30 50 1 3 47 CFG=1
M  V30 51 1 48 8
M  V30 52 1 49 9
M  V30 53 1 50 12
M  V30 54 1 51 12
M  V30 55 1 52 13
M  V30 56 1 53 13
M  V30 57 1 54 15
M  V30 58 1 55 18
M  V30 59 1 56 18
M  V30 60 1 57 19
M  V30 61 1 58 19
M  V30 62 1 59 21
M  V30 63 1 60 21
M  V30 64 1 61 22
M  V30 65 1 62 23
M  V30 66 1 63 23
M  V30 67 1 64 24
M  V30 68 1 65 24
M  V30 69 1 66 24
M  V30 70 1 25 67 CFG=3
M  V30 71 1 27 68 CFG=1
M  V30 72 1 69 28
M  V30 73 1 29 70 CFG=3
M  V30 74 1 71 30
M  V30 75 1 72 30
M  V30 76 1 31 73 CFG=3
M  V30 77 1 74 33
M  V30 78 1 75 33
M  V30 79 1 76 33
M  V30 80 1 77 34
M  V30 81 1 35 78 CFG=3
M  V30 82 1 36 79 CFG=3
M  V30 83 1 37 80 CFG=1
M  V30 84 1 81 39
M  V30 85 1 82 39
M  V30 86 1 83 40
M  V30 87 1 84 40
M  V30 88 1 41 85 CFG=1
M  V30 89 1 42 86 CFG=3
M  V30 90 1 87 43
M  V30 91 1 88 43
M  V30 END BOND
M  V30 END CTAB
M  END
>  <i_epik_Tot_Q>  (1) 
0

>  <i_epik_Tot_abs_Q>  (1) 
0

>  <i_i_glide_confnum>  (1) 
1869

>  <i_i_glide_lignum>  (1) 
132

>  <i_i_glide_posenum>  (1) 
92

>  <i_i_glide_rotatable_bonds>  (1) 
15

>  <i_lp_mmshare_version>  (1) 
72125

>  <i_m_source_file_index>  (1) 
67

>  <i_f3d_flags>  (1) 
0

>  <num_sample>  (1) 
100

>  <b_lp_Chiralities_Consistent>  (1) 
1

>  <r_epik_Charging_Adjusted_Penalty>  (1) 
0.011224841026204068

>  <r_epik_Ionization_Penalty>  (1) 
0.011270599783865109

>  <r_epik_Ionization_Penalty_Charging>  (1) 
8.5422756824624084e-11

>  <r_epik_Ionization_Penalty_Neutral>  (1) 
0.011270599698442352

>  <r_epik_State_Penalty>  (1) 
0.01122484094078131

>  <r_glide_ring_energy>  (1) 
0

>  <r_i_docking_score>  (1) 
-2.084937357057278

>  <r_i_glide_ecoul>  (1) 
-5.1928794480649287

>  <r_i_glide_eff_state_penalty>  (1) 
0.01122484094078131

>  <r_i_glide_einternal>  (1) 
13.703872527737428

>  <r_i_glide_emodel>  (1) 
-27.209060568163231

>  <r_i_glide_emodel_strain>  (1) 
0.75055226489311622

>  <r_i_glide_energy>  (1) 
-31.289528876331353

>  <r_i_glide_erotb>  (1) 
0.43215163049877869

>  <r_i_glide_esite>  (1) 
-0.20287804739721693

>  <r_i_glide_evdw>  (1) 
-26.096649428266424

>  <r_i_glide_gscore>  (1) 
-2.0961621979980594

>  <r_i_glide_gscore_strain>  (1) 
0

>  <r_i_glide_hbond>  (1) 
-0.32371829324457801

>  <r_i_glide_ligand_efficiency>  (1) 
-0.048486915280401811

>  <r_i_glide_ligand_efficiency_ln>  (1) 
-0.43790164378620455

>  <r_i_glide_ligand_efficiency_sa>  (1) 
-0.16986896494749518

>  <r_i_glide_lipo>  (1) 
-1.2208714970305083

>  <r_i_glide_metal>  (1) 
-0

>  <r_i_glide_rewards>  (1) 
1.3029183977985255

>  <r_lp_Energy>  (1) 
44.110861999999997

>  <r_lp_tautomer_probability>  (1) 
0.49997499999946832

>  <s_epik_Chemistry_Notes>  (1) 
This compound has an imine and may undergo hydrolysis.

>  <s_epik_cmdline>  (1) 
J2VwaWtfcHl0aG9uJywgJy1waHQnLCAnMS4wJywgJy1waCcsICc3LjQnLCAnLXRuJywgJzgnLCAnLW1hJywgJzUwMCcsICctaW1hZScsICc8aW5maWxlLm1hZT4nLCAnLW9tYWUnLCAnPG91dGZpbGUubWFlPic=

>  <s_epik_input>  (1) 
TzFbQ0gyXVtDSDJdTj1DMVtDQEhdKFtDSDJdW09IXSlDKD1PKU4oQyg9TylbQ0BIXTJGKVtDQEBIXShbQ0BASF0zW0NIM10pW0NIMl1bQ0BIXShbT0hdKVtDQEhdKFtDSDNdKVtDSDJdQyhcW0NIMl1bQ0BIXTIzKT1bQ0hdXFtDQEhdKFtDQEBIXTRPW0NIMl00KVtDSDJdW0NAQEhdKFtDQEBIXShGKVtPSF0pW0NIMl1DKD1PKVtOSF1bQ0gyXVtDSDNd

>  <s_glide_docking_method>  (1) 
confgen

>  <s_i_glide_gridfile>  (1) 
gpcr_drd2_6luq_protein_autoprepared_prepared

>  <s_lp_Force_Field>  (1) 
S-OPLS

>  <s_lp_Variant>  (1) 
DiffSBDD_66_num_sample_100-4

>  <s_m_source_file>  (1) 
generated__ligand_DiffSBDD_2026-05-06_prepared.sdf

>  <GenAI_Model>  (1) 
DiffSBDD

>  <Protein>  (1) 
generic_title2

$$$$
DiffSBDD_13_num_sample_100
     RDKit          3D

  0  0  0  0  0  0  0  0  0  0999 V3000
M  V30 BEGIN CTAB
M  V30 COUNTS 83 88 0 0 1
M  V30 BEGIN ATOM
M  V30 1 C 15.518722 8.023389 -19.561493 0
M  V30 2 C 14.637535 6.709796 -17.478054 0
M  V30 3 C 7.180926 4.667240 -21.744440 0
M  V30 4 F 15.386486 10.381061 -19.489789 0
M  V30 5 O 15.757454 10.301517 -23.514257 0 CHG=-1
M  V30 6 C 8.501575 0.445499 -20.445696 0 CFG=2
M  V30 7 C 15.431103 6.842732 -20.428107 0
M  V30 8 F 17.321464 9.446712 -19.959943 0
M  V30 9 C 15.214295 5.629892 -20.012622 0
M  V30 10 C 10.544974 -0.097248 -18.964086 0
M  V30 11 C 13.117536 2.630499 -17.684428 0
M  V30 12 C 11.961952 2.367403 -20.080914 0 CFG=2
M  V30 13 C 12.091548 1.989859 -18.617885 0 CFG=2
M  V30 14 O 8.646478 3.209025 -19.423004 0
M  V30 15 C 6.613566 3.375434 -22.349781 0 CFG=1
M  V30 16 C 15.979578 9.355610 -20.154111 0
M  V30 17 C 16.031542 10.386593 -22.319718 0
M  V30 18 C 15.181597 7.953781 -18.231956 0
M  V30 19 O 12.517851 -0.141987 -17.587175 0
M  V30 20 C 9.528962 2.331161 -18.790788 0 CFG=1
M  V30 21 O 15.667357 9.390364 -21.481351 0
M  V30 22 C 5.981675 0.966496 -19.668848 0
M  V30 23 C 14.583415 2.385029 -18.085405 0
M  V30 24 C 5.597407 2.412287 -20.046814 0
M  V30 25 C 12.945318 3.317802 -20.727983 0
M  V30 26 C 9.223602 2.598675 -17.294155 0
M  V30 27 O 16.635125 11.369301 -21.891702 0
M  V30 28 C 15.106687 3.250289 -19.260052 0 CFG=1
M  V30 29 C 6.990761 0.340738 -20.600063 0 CFG=2
M  V30 30 C 7.668082 2.445785 -23.025114 0
M  V30 31 O 7.849034 2.438118 -16.984145 0
M  V30 32 C 9.297243 0.818972 -19.154087 0 CFG=1
M  V30 33 C 5.435539 2.730541 -21.556049 0
M  V30 34 C 15.287968 5.298495 -17.607321 0
M  V30 35 C 14.415313 2.857726 -20.598289 0
M  V30 36 O 6.467277 5.419217 -21.080888 0
M  V30 37 C 15.173040 4.779044 -19.028400 0
M  V30 38 C 10.936325 2.847434 -19.069384 0 CFG=2
M  V30 39 C 11.790538 0.531563 -18.314810 0
M  V30 40 C 9.041417 2.133717 -22.364392 0
M  V30 41 C 9.214243 0.717689 -21.770739 0
M  V30 42 C 7.777377 -0.892448 -20.284602 0
M  V30 43 H 14.634705 6.969614 -16.419483 0
M  V30 44 H 13.578763 6.631412 -17.729867 0
M  V30 45 H 8.233772 4.861421 -21.947344 0
M  V30 46 H 15.570105 7.002217 -21.487208 0
M  V30 47 H 10.864084 -0.505650 -19.920751 0
M  V30 48 H 10.258459 -0.965277 -18.369281 0
M  V30 49 H 12.961798 2.248986 -16.675111 0
M  V30 50 H 12.915294 3.698336 -17.612982 0
M  V30 51 H 11.711352 1.551978 -20.743250 0
M  V30 52 H 7.857269 3.214808 -18.896301 0
M  V30 53 H 6.086206 3.770998 -23.218985 0
M  V30 54 H 15.257600 8.852036 -17.636252 0
M  V30 55 H 6.334100 0.918753 -18.640259 0
M  V30 56 H 5.085167 0.346072 -19.708870 0
M  V30 57 H 15.221239 2.535255 -17.214298 0
M  V30 58 H 14.714560 1.330527 -18.330798 0
M  V30 59 H 4.634895 2.592821 -19.572894 0
M  V30 60 H 6.241289 3.138230 -19.565931 0
M  V30 61 H 12.684382 3.385656 -21.784460 0
M  V30 62 H 12.797970 4.319445 -20.327203 0
M  V30 63 H 9.810754 1.924267 -16.674818 0
M  V30 64 H 9.509397 3.613719 -17.011868 0
M  V30 65 H 16.152884 2.960657 -19.369382 0
M  V30 66 H 6.603456 0.295153 -21.613665 0
M  V30 67 H 7.194816 1.531547 -23.381534 0
M  V30 68 H 7.925230 2.969318 -23.942927 0
M  V30 69 H 7.637257 1.516182 -16.992975 0
M  V30 70 H 8.639038 0.468046 -18.361559 0
M  V30 71 H 5.035313 1.869877 -22.092898 0
M  V30 72 H 4.634982 3.466964 -21.610577 0
M  V30 73 H 16.339856 5.331092 -17.323124 0
M  V30 74 H 14.794248 4.656377 -16.883866 0
M  V30 75 H 14.475730 1.778801 -20.748174 0
M  V30 76 H 14.983544 3.280349 -21.428073 0
M  V30 77 H 11.018086 3.910673 -18.846990 0
M  V30 78 H 9.773916 2.182226 -23.171213 0
M  V30 79 H 9.381446 2.914776 -21.694202 0
M  V30 80 H 10.261993 0.451444 -21.700405 0
M  V30 81 H 8.834584 0.011747 -22.510729 0
M  V30 82 H 7.897788 -1.632072 -21.073812 0
M  V30 83 H 7.649697 -1.312379 -19.288430 0
M  V30 END ATOM
M  V30 BEGIN BOND
M  V30 1 1 7 1
M  V30 2 2 9 7
M  V30 3 1 13 11 CFG=1
M  V30 4 1 13 12
M  V30 5 1 15 3
M  V30 6 1 16 1
M  V30 7 1 16 4
M  V30 8 1 16 8
M  V30 9 1 17 5
M  V30 10 2 18 1
M  V30 11 1 18 2
M  V30 12 1 20 14 CFG=3
M  V30 13 1 21 16
M  V30 14 1 21 17
M  V30 15 1 23 11
M  V30 16 1 24 22
M  V30 17 1 25 12
M  V30 18 1 26 20
M  V30 19 2 27 17
M  V30 20 1 28 23
M  V30 21 1 29 6
M  V30 22 1 29 22
M  V30 23 1 30 15
M  V30 24 1 31 26
M  V30 25 1 32 6
M  V30 26 1 32 10
M  V30 27 1 32 20
M  V30 28 1 33 15
M  V30 29 1 33 24
M  V30 30 1 34 2
M  V30 31 1 35 25
M  V30 32 1 35 28
M  V30 33 2 36 3
M  V30 34 2 37 9
M  V30 35 1 37 28
M  V30 36 1 37 34
M  V30 37 1 38 12
M  V30 38 1 38 13
M  V30 39 1 38 20
M  V30 40 1 39 10
M  V30 41 1 39 13
M  V30 42 2 39 19
M  V30 43 1 40 30
M  V30 44 1 6 41 CFG=3
M  V30 45 1 41 40
M  V30 46 1 42 6
M  V30 47 1 42 29
M  V30 48 1 43 2
M  V30 49 1 44 2
M  V30 50 1 45 3
M  V30 51 1 46 7
M  V30 52 1 47 10
M  V30 53 1 48 10
M  V30 54 1 49 11
M  V30 55 1 50 11
M  V30 56 1 12 51 CFG=3
M  V30 57 1 52 14
M  V30 58 1 15 53 CFG=3
M  V30 59 1 54 18
M  V30 60 1 55 22
M  V30 61 1 56 22
M  V30 62 1 57 23
M  V30 63 1 58 23
M  V30 64 1 59 24
M  V30 65 1 60 24
M  V30 66 1 61 25
M  V30 67 1 62 25
M  V30 68 1 63 26
M  V30 69 1 64 26
M  V30 70 1 28 65 CFG=3
M  V30 71 1 29 66 CFG=3
M  V30 72 1 67 30
M  V30 73 1 68 30
M  V30 74 1 69 31
M  V30 75 1 32 70 CFG=1
M  V30 76 1 71 33
M  V30 77 1 72 33
M  V30 78 1 73 34
M  V30 79 1 74 34
M  V30 80 1 75 35
M  V30 81 1 76 35
M  V30 82 1 38 77 CFG=1
M  V30 83 1 78 40
M  V30 84 1 79 40
M  V30 85 1 80 41
M  V30 86 1 81 41
M  V30 87 1 82 42
M  V30 88 1 83 42
M  V30 END BOND
M  V30 END CTAB
M  END
>  <i_epik_Tot_Q>  (1) 
-1

>  <i_epik_Tot_abs_Q>  (1) 
1

>  <i_i_glide_confnum>  (1) 
509

>  <i_i_glide_lignum>  (1) 
22

>  <i_i_glide_posenum>  (1) 
298

>  <i_i_glide_rotatable_bonds>  (1) 
9

>  <i_lp_mmshare_version>  (1) 
72125

>  <i_m_source_file_index>  (1) 
14

>  <i_f3d_flags>  (1) 
0

>  <num_sample>  (1) 
100

>  <b_lp_Chiralities_Consistent>  (1) 
1

>  <r_epik_Charging_Adjusted_Penalty>  (1) 
0.0089730796108065652

>  <r_epik_Ionization_Penalty>  (1) 
0.0044867090219468872

>  <r_epik_Ionization_Penalty_Charging>  (1) 
0.0044865398054032973

>  <r_epik_Ionization_Penalty_Neutral>  (1) 
1.6921654359002709e-07

>  <r_epik_State_Penalty>  (1) 
0.0044865398054032678

>  <r_glide_ring_energy>  (1) 
0

>  <r_i_docking_score>  (1) 
-2.0832334370962262

>  <r_i_glide_ecoul>  (1) 
0.74557660502445966

>  <r_i_glide_eff_state_penalty>  (1) 
0.0044865398054032678

>  <r_i_glide_einternal>  (1) 
19.322716860624258

>  <r_i_glide_emodel>  (1) 
-12.579754995126008

>  <r_i_glide_emodel_strain>  (1) 
2.2466881394419715

>  <r_i_glide_energy>  (1) 
-22.849023700220592

>  <r_i_glide_erotb>  (1) 
0.1967937001840224

>  <r_i_glide_esite>  (1) 
-0.014962639298986891

>  <r_i_glide_evdw>  (1) 
-23.594600305245052

>  <r_i_glide_gscore>  (1) 
-2.0877199769016297

>  <r_i_glide_gscore_strain>  (1) 
0

>  <r_i_glide_hbond>  (1) 
0

>  <r_i_glide_ligand_efficiency>  (1) 
-0.049600796121338719

>  <r_i_glide_ligand_efficiency_ln>  (1) 
-0.43971690829954041

>  <r_i_glide_ligand_efficiency_sa>  (1) 
-0.17241368892535389

>  <r_i_glide_lipo>  (1) 
-0.75138012402094145

>  <r_i_glide_metal>  (1) 
-0

>  <r_i_glide_rewards>  (1) 
-0.45027738925714017

>  <r_lp_Energy>  (1) 
45.328569999999999

>  <r_lp_tautomer_probability>  (1) 
0.99985000999950013

>  <s_epik_Chemistry_Notes>  (1) 
This compound has an ester and may undergo hydrolysis at high or low pH. This is carbonic acid which has a microscopic pka value of about 3.8 however its equilibrium with CO2 as a lewis acid yields a pKa of about 6.35.

>  <s_epik_cmdline>  (1) 
J2VwaWtfcHl0aG9uJywgJy1waHQnLCAnMS4wJywgJy1waCcsICc3LjQnLCAnLXRuJywgJzgnLCAnLW1hJywgJzUwMCcsICctaW1hZScsICc8aW5maWxlLm1hZT4nLCAnLW9tYWUnLCAnPG91dGZpbGUubWFlPic=

>  <s_epik_input>  (1) 
W09IXUMoPU8pT0MoRikoRilDMT1bQ0hdW0NIMl1bQ0gyXUMoPUM9W0NIXTEpW0NAQEhdKFtDSDJdW0NIMl0yKVtDSDJdW0NIMl1bQ0BASF0oQzIzNClbQ0BIXTNbQ0BdKFtPSF0pKFtDSDJdW09IXSlbQ0BIXShbQ0gyXUM0PU8pW0NAXTU2W0NAQEhdKFtDSDJdNilbQ0gyXVtDSDJdW0NIMl1bQ0BASF0oW0NIXT1PKVtDSDJdW0NIMl1bQ0gyXTU=

>  <s_glide_docking_method>  (1) 
confgen

>  <s_i_glide_gridfile>  (1) 
gpcr_drd2_6luq_protein_autoprepared_prepared

>  <s_lp_Force_Field>  (1) 
S-OPLS

>  <s_lp_Variant>  (1) 
DiffSBDD_13_num_sample_100-1

>  <s_m_source_file>  (1) 
generated__ligand_DiffSBDD_2026-05-06_prepared.sdf

>  <GenAI_Model>  (1) 
DiffSBDD

>  <Protein>  (1) 
generic_title2

$$$$
DiffSBDD_85_num_sample_100
     RDKit          3D

  0  0  0  0  0  0  0  0  0  0999 V3000
M  V30 BEGIN CTAB
M  V30 COUNTS 86 88 0 0 1
M  V30 BEGIN ATOM
M  V30 1 O 5.434841 1.769305 -21.487953 0
M  V30 2 C 8.140587 -1.028467 -19.814844 0
M  V30 3 C 14.671269 6.528836 -21.413364 0
M  V30 4 C 18.166346 5.457554 -21.032461 0
M  V30 5 C 9.934915 -0.241827 -21.464104 0
M  V30 6 C 11.037228 5.701603 -17.316206 0 CFG=1
M  V30 7 C 16.064421 4.506052 -22.174074 0 CFG=2
M  V30 8 C 16.881949 3.250599 -21.297777 0
M  V30 9 C 12.390310 6.442198 -17.440810 0 CFG=2
M  V30 10 C 15.284475 6.996430 -20.065034 0 CFG=2
M  V30 11 C 11.335212 3.202228 -17.857284 0 CFG=2
M  V30 12 C 10.095673 1.037761 -18.646555 0
M  V30 13 C 14.201807 7.305883 -19.008475 0
M  V30 14 C 16.212466 8.222625 -20.251742 0
M  V30 15 C 12.697998 2.514029 -17.649603 0
M  V30 16 C 10.056054 5.909622 -18.489757 0
M  V30 17 C 18.095285 6.922971 -21.494198 0 CFG=1
M  V30 18 O 8.922893 2.922081 -17.673992 0
M  V30 19 C 17.220676 4.580735 -21.419999 0
M  V30 20 O 9.183696 1.216680 -19.642108 0
M  V30 21 C 19.258307 4.980060 -20.178371 0
M  V30 22 C 14.733128 5.007062 -21.633878 0
M  V30 23 C 17.728297 7.921657 -20.350330 0 CFG=1
M  V30 24 C 13.248428 6.139455 -18.683658 0
M  V30 25 C 7.666184 0.844582 -21.428868 0
M  V30 26 C 20.245548 5.770412 -19.717482 0
M  V30 27 C 6.407835 1.224635 -20.622676 0 CFG=2
M  V30 28 C 8.763275 0.188866 -20.554457 0 CFG=2
M  V30 29 C 5.820929 0.008456 -19.890401 0
M  V30 30 C 18.485797 9.264195 -20.438479 0
M  V30 31 O 13.149307 6.175685 -16.277211 0
M  V30 32 C 6.884077 -0.657304 -19.003996 0
M  V30 33 O 10.811435 0.047884 -18.509052 0
M  V30 34 N 11.180312 4.294876 -16.862304 0 CHG=1
M  V30 35 C 10.151924 2.216660 -17.663679 0 CFG=2
M  V30 36 O 19.287874 7.271990 -22.176096 0
M  V30 37 H 4.945479 1.061187 -21.891711 0
M  V30 38 H 8.867866 -1.507971 -19.160537 0
M  V30 39 H 7.867785 -1.789238 -20.547739 0
M  V30 40 H 13.631801 6.854174 -21.466744 0
M  V30 41 H 15.139572 7.020599 -22.265130 0
M  V30 42 H 9.594416 -0.923697 -22.243912 0
M  V30 43 H 10.389943 0.618165 -21.956214 0
M  V30 44 H 10.718843 -0.761758 -20.914713 0
M  V30 45 H 10.550581 6.169328 -16.459379 0
M  V30 46 H 16.150514 4.510025 -23.258840 0
M  V30 47 H 16.410582 2.885791 -20.387749 0
M  V30 48 H 17.397030 2.493082 -21.884995 0
M  V30 49 H 12.179445 7.512036 -17.439165 0
M  V30 50 H 15.884616 6.192388 -19.640697 0
M  V30 51 H 11.319288 3.594182 -18.872505 0
M  V30 52 H 13.616626 8.171267 -19.325187 0
M  V30 53 H 14.703305 7.607833 -18.087929 0
M  V30 54 H 15.890792 8.812043 -21.111669 0
M  V30 55 H 16.082098 8.894866 -19.402247 0
M  V30 56 H 12.898602 1.778599 -18.428973 0
M  V30 57 H 13.521345 3.225119 -17.667138 0
M  V30 58 H 12.741861 1.995935 -16.691724 0
M  V30 59 H 9.917440 6.969305 -18.692249 0
M  V30 60 H 10.389716 5.460322 -19.423323 0
M  V30 61 H 9.070739 5.507018 -18.257291 0
M  V30 62 H 17.340766 7.003132 -22.274464 0
M  V30 63 H 8.658536 3.034366 -18.577045 0
M  V30 64 H 19.272547 3.935296 -19.902005 0
M  V30 65 H 14.487923 4.473770 -20.715642 0
M  V30 66 H 13.965850 4.722984 -22.354992 0
M  V30 67 H 18.024936 7.476338 -19.400481 0
M  V30 68 H 13.818780 5.224564 -18.536811 0
M  V30 69 H 12.610110 5.965636 -19.548148 0
M  V30 70 H 7.380879 0.156198 -22.226021 0
M  V30 71 H 8.065600 1.730644 -21.924329 0
M  V30 72 H 21.027824 5.369357 -19.091704 0
M  V30 73 H 20.285907 6.820567 -19.956681 0
M  V30 74 H 6.664017 1.995744 -19.894908 0
M  V30 75 H 4.966129 0.310446 -19.283358 0
M  V30 76 H 5.444808 -0.718003 -20.612817 0
M  V30 77 H 18.274578 9.778627 -21.376450 0
M  V30 78 H 18.205159 9.932441 -19.623957 0
M  V30 79 H 19.564644 9.121891 -20.370931 0
M  V30 80 H 13.897795 6.754465 -16.264842 0
M  V30 81 H 7.154925 0.014751 -18.188608 0
M  V30 82 H 6.468093 -1.550797 -18.536782 0
M  V30 83 H 10.322067 4.075653 -16.374302 0
M  V30 84 H 10.235846 1.765786 -16.681144 0
M  V30 85 H 19.447554 6.627522 -22.848690 0
M  V30 86 H 11.938324 4.273352 -16.189898 0
M  V30 END ATOM
M  V30 BEGIN BOND
M  V30 1 1 8 7
M  V30 2 1 9 6
M  V30 3 1 10 3
M  V30 4 1 13 10
M  V30 5 1 14 10
M  V30 6 1 15 11
M  V30 7 1 16 6
M  V30 8 1 17 4
M  V30 9 2 19 4
M  V30 10 1 19 7
M  V30 11 1 19 8
M  V30 12 1 20 12
M  V30 13 1 21 4
M  V30 14 1 22 3
M  V30 15 1 22 7
M  V30 16 1 23 14
M  V30 17 1 23 17
M  V30 18 1 24 9
M  V30 19 1 24 13
M  V30 20 2 26 21
M  V30 21 1 27 1
M  V30 22 1 27 25
M  V30 23 1 28 2
M  V30 24 1 28 5
M  V30 25 1 28 20 CFG=1
M  V30 26 1 28 25
M  V30 27 1 29 27
M  V30 28 1 30 23
M  V30 29 1 31 9
M  V30 30 1 32 2
M  V30 31 1 32 29
M  V30 32 2 33 12
M  V30 33 1 34 6
M  V30 34 1 34 11
M  V30 35 1 35 11
M  V30 36 1 35 12
M  V30 37 1 35 18
M  V30 38 1 36 17
M  V30 39 1 37 1
M  V30 40 1 38 2
M  V30 41 1 39 2
M  V30 42 1 40 3
M  V30 43 1 41 3
M  V30 44 1 42 5
M  V30 45 1 43 5
M  V30 46 1 44 5
M  V30 47 1 6 45 CFG=1
M  V30 48 1 7 46 CFG=3
M  V30 49 1 47 8
M  V30 50 1 48 8
M  V30 51 1 9 49 CFG=3
M  V30 52 1 10 50 CFG=1
M  V30 53 1 11 51 CFG=3
M  V30 54 1 52 13
M  V30 55 1 53 13
M  V30 56 1 54 14
M  V30 57 1 55 14
M  V30 58 1 56 15
M  V30 59 1 57 15
M  V30 60 1 58 15
M  V30 61 1 59 16
M  V30 62 1 60 16
M  V30 63 1 61 16
M  V30 64 1 17 62 CFG=3
M  V30 65 1 63 18
M  V30 66 1 64 21
M  V30 67 1 65 22
M  V30 68 1 66 22
M  V30 69 1 23 67 CFG=1
M  V30 70 1 68 24
M  V30 71 1 69 24
M  V30 72 1 70 25
M  V30 73 1 71 25
M  V30 74 1 72 26
M  V30 75 1 73 26
M  V30 76 1 27 74 CFG=1
M  V30 77 1 75 29
M  V30 78 1 76 29
M  V30 79 1 77 30
M  V30 80 1 78 30
M  V30 81 1 79 30
M  V30 82 1 80 31
M  V30 83 1 81 32
M  V30 84 1 82 32
M  V30 85 1 83 34
M  V30 86 1 35 84 CFG=1
M  V30 87 1 85 36
M  V30 88 1 86 34
M  V30 END BOND
M  V30 END CTAB
M  END
>  <i_epik_Tot_Q>  (1) 
1

>  <i_epik_Tot_abs_Q>  (1) 
1

>  <i_i_glide_confnum>  (1) 
561

>  <i_i_glide_lignum>  (1) 
174

>  <i_i_glide_posenum>  (1) 
37

>  <i_i_glide_rotatable_bonds>  (1) 
15

>  <i_lp_mmshare_version>  (1) 
72125

>  <i_m_source_file_index>  (1) 
86

>  <i_f3d_flags>  (1) 
0

>  <num_sample>  (1) 
100

>  <b_lp_Chiralities_Consistent>  (1) 
1

>  <r_epik_Charging_Adjusted_Penalty>  (1) 
0.062696987853435748

>  <r_epik_Ionization_Penalty>  (1) 
0.034019236300638377

>  <r_epik_Ionization_Penalty_Charging>  (1) 
0.03134849392671793

>  <r_epik_Ionization_Penalty_Neutral>  (1) 
0.0026707423739204469

>  <r_epik_State_Penalty>  (1) 
0.031348493926717819

>  <r_glide_ring_energy>  (1) 
0

>  <r_i_docking_score>  (1) 
-2.0411178828083276

>  <r_i_glide_ecoul>  (1) 
-5.7098630505998003

>  <r_i_glide_eff_state_penalty>  (1) 
0.031348493926717819

>  <r_i_glide_einternal>  (1) 
15.481720050139675

>  <r_i_glide_emodel>  (1) 
-20.214314975120999

>  <r_i_glide_emodel_strain>  (1) 
1.100346927157716

>  <r_i_glide_energy>  (1) 
-25.464744764779816

>  <r_i_glide_erotb>  (1) 
0.87027123501495496

>  <r_i_glide_esite>  (1) 
0

>  <r_i_glide_evdw>  (1) 
-19.754881714180016

>  <r_i_glide_gscore>  (1) 
-2.0724663767350453

>  <r_i_glide_gscore_strain>  (1) 
0

>  <r_i_glide_hbond>  (1) 
-0.32000000000000001

>  <r_i_glide_ligand_efficiency>  (1) 
-0.056697718966897986

>  <r_i_glide_ligand_efficiency_ln>  (1) 
-0.44531677739633119

>  <r_i_glide_ligand_efficiency_sa>  (1) 
-0.1872117432069702

>  <r_i_glide_lipo>  (1) 
-0.70194761627362567

>  <r_i_glide_metal>  (1) 
-0

>  <r_i_glide_rewards>  (1) 
-0.07656645217740371

>  <r_lp_Energy>  (1) 
47.724364000000001

>  <s_epik_Chemistry_Notes>  (1) 
This compound has an ester and may undergo hydrolysis at high or low pH.

>  <s_epik_cmdline>  (1) 
J2VwaWtfcHl0aG9uJywgJy1waHQnLCAnMS4wJywgJy1waCcsICc3LjQnLCAnLXRuJywgJzgnLCAnLW1hJywgJzUwMCcsICctaW1hZScsICc8aW5maWxlLm1hZT4nLCAnLW9tYWUnLCAnPG91dGZpbGUubWFlPic=

>  <s_epik_input>  (1) 
W09IXVtDQEhdKFtDSDJdMSlbQ0gyXVtDSDJdW0NIMl1bQ0BdMShbQ0gzXSlPQyg9TylbQ0BIXShbT0hdKVtDQEhdKFtDSDNdKVtOSF1bQ0BIXShbQ0gzXSlbQ0BASF0oW09IXSlbQ0gyXVtDSDJdW0NAQEhdKFtDSDJdW0NIMl0yKVtDSDJdW0NASF0oW0NIM10pW0NAQEhdKFtPSF0pL0MoPUMoXFtDSF0yMylbQ0gyXTMpW0NIXT1bQ0gyXQ==

>  <s_glide_docking_method>  (1) 
confgen

>  <s_i_glide_gridfile>  (1) 
gpcr_drd2_6luq_protein_autoprepared_prepared

>  <s_lp_Force_Field>  (1) 
S-OPLS

>  <s_lp_Variant>  (1) 
DiffSBDD_85_num_sample_100-1

>  <s_m_source_file>  (1) 
generated__ligand_DiffSBDD_2026-05-06_prepared.sdf

>  <GenAI_Model>  (1) 
DiffSBDD

>  <Protein>  (1) 
generic_title2

$$$$
DiffSBDD_6_num_sample_100
     RDKit          3D

  0  0  0  0  0  0  0  0  0  0999 V3000
M  V30 BEGIN CTAB
M  V30 COUNTS 65 68 0 0 1
M  V30 BEGIN ATOM
M  V30 1 N 10.618792 1.472947 -19.764868 0
M  V30 2 N 6.112482 6.640550 -19.702115 0
M  V30 3 C 6.372854 7.632850 -20.684109 0
M  V30 4 C 8.806787 6.915962 -21.102588 0
M  V30 5 C 15.351792 0.035112 -20.080330 0
M  V30 6 N 7.392733 3.532091 -20.171581 0 CFG=1 CHG=1
M  V30 7 C 11.946658 1.812709 -20.152834 0
M  V30 8 F 4.112003 7.915884 -21.347743 0
M  V30 9 C 7.198304 1.138613 -18.238332 0
M  V30 10 C 10.348653 0.692087 -18.557281 0
M  V30 11 C 7.427730 4.863211 -20.830945 0 CFG=1
M  V30 12 F 14.667162 -1.092850 -19.891668 0
M  V30 13 C 8.620381 2.967764 -19.505138 0 CFG=2
M  V30 14 C 6.970767 5.472369 -19.516345 0 CFG=2
M  V30 15 C 6.313315 4.105021 -19.330968 0
M  V30 16 F 16.029590 -0.076889 -21.223117 0
M  V30 17 C 14.385550 3.784836 -20.425634 0
M  V30 18 C 13.100805 4.042660 -20.654730 0
M  V30 19 C 14.434805 1.249471 -20.121058 0
M  V30 20 C 9.386064 1.965474 -20.427229 0 CFG=1
M  V30 21 F 5.430831 7.369299 -17.649708 0
M  V30 22 C 12.067659 3.042812 -20.990005 0
M  V30 23 C 15.011944 2.465089 -20.386241 0
M  V30 24 C 8.693484 5.425857 -21.437974 0
M  V30 25 C 9.399162 2.167580 -21.965941 0
M  V30 26 F 4.946384 9.369301 -19.940567 0
M  V30 27 C 7.558544 7.761679 -21.341741 0
M  V30 28 C 8.310566 2.215651 -18.159549 0 CFG=2
M  V30 29 C 12.999555 1.038036 -19.804789 0
M  V30 30 C 5.210325 8.573323 -20.973441 0
M  V30 31 C 9.593756 1.592192 -17.562888 0
M  V30 32 C 5.004554 6.750865 -18.749295 0
M  V30 33 F 16.234841 0.169294 -19.091694 0
M  V30 34 H 9.618550 7.349059 -21.688191 0
M  V30 35 H 9.109492 7.050579 -20.063221 0
M  V30 36 H 7.475794 0.290146 -18.862278 0
M  V30 37 H 6.987568 0.738476 -17.245751 0
M  V30 38 H 6.254373 1.521551 -18.621384 0
M  V30 39 H 9.763211 -0.191720 -18.812274 0
M  V30 40 H 11.236037 0.332455 -18.043593 0
M  V30 41 H 6.618165 4.900609 -21.567843 0
M  V30 42 H 9.286779 3.790810 -19.247227 0
M  V30 43 H 7.779748 5.646898 -18.804105 0
M  V30 44 H 5.339309 4.013437 -19.819469 0
M  V30 45 H 6.234835 3.799141 -18.291671 0
M  V30 46 H 15.032114 4.635790 -20.267212 0
M  V30 47 H 12.774918 5.073442 -20.661416 0
M  V30 48 H 8.765194 1.071170 -20.405095 0
M  V30 49 H 12.150633 2.782106 -22.045487 0
M  V30 50 H 11.188225 3.649403 -20.849039 0
M  V30 51 H 16.082001 2.452008 -20.536698 0
M  V30 52 H 8.695181 5.280129 -22.518805 0
M  V30 53 H 9.589367 4.958280 -21.056520 0
M  V30 54 H 8.387189 2.107418 -22.366440 0
M  V30 55 H 9.802549 3.110173 -22.320890 0
M  V30 56 H 9.965746 1.369802 -22.447468 0
M  V30 57 H 7.661489 8.546082 -22.077971 0
M  V30 58 H 7.990257 2.953044 -17.423806 0
M  V30 59 H 12.774591 0.142721 -19.253520 0
M  V30 60 H 5.456394 9.233634 -21.805707 0
M  V30 61 H 9.351151 1.021743 -16.667581 0
M  V30 62 H 10.262758 2.390614 -17.237534 0
M  V30 63 H 4.143050 7.303704 -19.112645 0
M  V30 64 H 4.634827 5.779120 -18.429076 0
M  V30 65 H 7.004403 2.831338 -20.787214 0
M  V30 END ATOM
M  V30 BEGIN BOND
M  V30 1 1 3 2
M  V30 2 1 7 1
M  V30 3 1 10 1
M  V30 4 1 11 6
M  V30 5 1 12 5
M  V30 6 1 13 6
M  V30 7 1 14 2
M  V30 8 1 14 11
M  V30 9 1 15 6
M  V30 10 1 15 14
M  V30 11 1 16 5
M  V30 12 2 18 17
M  V30 13 1 19 5
M  V30 14 1 20 1
M  V30 15 1 20 13
M  V30 16 1 22 7
M  V30 17 1 22 18
M  V30 18 1 23 17
M  V30 19 2 23 19
M  V30 20 1 24 4
M  V30 21 1 24 11
M  V30 22 1 25 20
M  V30 23 2 27 3
M  V30 24 1 27 4
M  V30 25 1 28 9
M  V30 26 1 28 13
M  V30 27 2 29 7
M  V30 28 1 29 19
M  V30 29 1 30 3
M  V30 30 1 30 8
M  V30 31 1 30 26
M  V30 32 1 31 10
M  V30 33 1 31 28
M  V30 34 1 32 2
M  V30 35 1 32 21
M  V30 36 1 33 5
M  V30 37 1 34 4
M  V30 38 1 35 4
M  V30 39 1 36 9
M  V30 40 1 37 9
M  V30 41 1 38 9
M  V30 42 1 39 10
M  V30 43 1 40 10
M  V30 44 1 11 41 CFG=3
M  V30 45 1 13 42 CFG=1
M  V30 46 1 14 43 CFG=1
M  V30 47 1 44 15
M  V30 48 1 45 15
M  V30 49 1 46 17
M  V30 50 1 47 18
M  V30 51 1 20 48 CFG=3
M  V30 52 1 49 22
M  V30 53 1 50 22
M  V30 54 1 51 23
M  V30 55 1 52 24
M  V30 56 1 53 24
M  V30 57 1 54 25
M  V30 58 1 55 25
M  V30 59 1 56 25
M  V30 60 1 57 27
M  V30 61 1 28 58 CFG=1
M  V30 62 1 59 29
M  V30 63 1 60 30
M  V30 64 1 61 31
M  V30 65 1 62 31
M  V30 66 1 63 32
M  V30 67 1 64 32
M  V30 68 1 6 65 CFG=3
M  V30 END BOND
M  V30 END CTAB
M  END
>  <i_epik_Tot_Q>  (1) 
1

>  <i_epik_Tot_abs_Q>  (1) 
1

>  <i_i_glide_confnum>  (1) 
11

>  <i_i_glide_lignum>  (1) 
11

>  <i_i_glide_posenum>  (1) 
60

>  <i_i_glide_rotatable_bonds>  (1) 
5

>  <i_lp_mmshare_version>  (1) 
72125

>  <i_m_source_file_index>  (1) 
7

>  <i_f3d_flags>  (1) 
0

>  <num_sample>  (1) 
100

>  <b_lp_Chiralities_Consistent>  (1) 
1

>  <r_epik_Charging_Adjusted_Penalty>  (1) 
2.2946868864184928

>  <r_epik_Ionization_Penalty>  (1) 
1.147343534253078

>  <r_epik_Ionization_Penalty_Charging>  (1) 
1.1473434712357071

>  <r_epik_Ionization_Penalty_Neutral>  (1) 
6.301737089438289e-08

>  <r_epik_State_Penalty>  (1) 
1.1473434151827855

>  <r_glide_ring_energy>  (1) 
0.066861304234085719

>  <r_i_docking_score>  (1) 
-1.9952100369859973

>  <r_i_glide_ecoul>  (1) 
-0.82646950704748146

>  <r_i_glide_eff_state_penalty>  (1) 
1.1473434151827855

>  <r_i_glide_einternal>  (1) 
7.7793172671578077

>  <r_i_glide_emodel>  (1) 
-20.037564580655989

>  <r_i_glide_emodel_strain>  (1) 
0.063946424462244522

>  <r_i_glide_energy>  (1) 
-19.042475114501507

>  <r_i_glide_erotb>  (1) 
0.17835229215497114

>  <r_i_glide_esite>  (1) 
-0.04160129614470047

>  <r_i_glide_evdw>  (1) 
-18.216005607454026

>  <r_i_glide_gscore>  (1) 
-3.1425534521687828

>  <r_i_glide_gscore_strain>  (1) 
0

>  <r_i_glide_hbond>  (1) 
0

>  <r_i_glide_ligand_efficiency>  (1) 
-0.060460910211696889

>  <r_i_glide_ligand_efficiency_ln>  (1) 
-0.44372438158099847

>  <r_i_glide_ligand_efficiency_sa>  (1) 
-0.19393044512681301

>  <r_i_glide_lipo>  (1) 
-1.1159273490088852

>  <r_i_glide_metal>  (1) 
-0

>  <r_i_glide_rewards>  (1) 
-1.1286063927403447

>  <r_lp_Energy>  (1) 
67.908214999999998

>  <s_epik_Chemistry_Notes>  (1) 
This compound has an imine and may undergo hydrolysis.

>  <s_epik_cmdline>  (1) 
J2VwaWtfcHl0aG9uJywgJy1waHQnLCAnMS4wJywgJy1waCcsICc3LjQnLCAnLXRuJywgJzgnLCAnLW1hJywgJzUwMCcsICctaW1hZScsICc8aW5maWxlLm1hZT4nLCAnLW9tYWUnLCAnPG91dGZpbGUubWFlPic=

>  <s_epik_input>  (1) 
W0NIMl0xW0NIXT1bQ0hdW0NIXT1DKEMoRikoRilGKVtDSF09QzFOMltDSDJdW0NIMl1bQ0BIXShbQ0gzXSlbQ0BASF0oW0NASF0yW0NIM10pTjNbQ0gyXVtDQEBIXShbQ0BIXTM0KU4oW0NIMl1GKUMoW0NIXShGKUYpPVtDSF1bQ0gyXVtDSDJdNA==

>  <s_glide_docking_method>  (1) 
confgen

>  <s_i_glide_gridfile>  (1) 
gpcr_drd2_6luq_protein_autoprepared_prepared

>  <s_lp_Force_Field>  (1) 
S-OPLS

>  <s_lp_Variant>  (1) 
DiffSBDD_6_num_sample_100-3

>  <s_m_source_file>  (1) 
generated__ligand_DiffSBDD_2026-05-06_prepared.sdf

>  <GenAI_Model>  (1) 
DiffSBDD

>  <Protein>  (1) 
generic_title2

$$$$
DiffSBDD_92_num_sample_100
     RDKit          3D

  0  0  0  0  0  0  0  0  0  0999 V3000
M  V30 BEGIN CTAB
M  V30 COUNTS 66 68 0 0 1
M  V30 BEGIN ATOM
M  V30 1 F 13.475811 3.189870 -18.675140 0
M  V30 2 C 9.187141 3.571355 -17.888857 0 CFG=1
M  V30 3 C 7.084781 -2.324138 -21.905358 0
M  V30 4 C 14.541692 6.674999 -18.086612 0
M  V30 5 S 9.782570 0.938355 -19.409119 0
M  V30 6 F 7.273438 0.373514 -21.264330 0
M  V30 7 C 14.264623 4.283981 -18.556334 0
M  V30 8 C 8.933202 -1.643371 -17.228651 0
M  V30 9 C 12.183243 5.653448 -17.977890 0 CFG=2
M  V30 10 C 5.486200 -2.632247 -20.031320 0
M  V30 11 S 8.979891 4.398123 -16.291666 0
M  V30 12 C 7.742762 -1.307063 -18.159254 0 CFG=1
M  V30 13 C 8.434265 1.268401 -18.450862 0
M  V30 14 N 8.226408 2.467294 -17.828871 0
M  V30 15 C 6.679882 0.489160 -16.768235 0
M  V30 16 C 15.651080 4.170763 -18.771330 0
M  V30 17 C 6.114404 0.343405 -19.205090 0 CFG=1
M  V30 18 C 10.493027 5.369300 -16.016707 0
M  V30 19 C 15.930503 6.547859 -18.301662 0
M  V30 20 C 9.886193 5.689466 -19.232599 0
M  V30 21 C 13.697757 5.536488 -18.214944 0
M  V30 22 C 6.335051 -0.295210 -20.595572 0 CFG=2
M  V30 23 C 7.296943 0.213145 -18.179980 0 CFG=2
M  V30 24 C 16.481807 5.299407 -18.644101 0
M  V30 25 O 14.020986 7.896223 -17.753573 0
M  V30 26 F 16.736735 7.629799 -18.178731 0
M  V30 27 C 11.789468 4.883596 -16.691668 0
M  V30 28 C 6.700676 -1.799222 -20.505604 0
M  V30 29 C 8.907239 4.508825 -19.080863 0
M  V30 30 C 11.378409 5.290894 -19.253738 0
M  V30 31 O 5.630918 1.670122 -19.347992 0
M  V30 32 C 7.899551 -1.991153 -19.545764 0
M  V30 33 H 10.199781 3.184456 -17.926487 0
M  V30 34 H 6.270783 -2.186325 -22.618142 0
M  V30 35 H 7.958974 -1.809395 -22.305554 0
M  V30 36 H 7.322423 -3.388088 -21.879940 0
M  V30 37 H 9.895493 -1.316416 -17.614963 0
M  V30 38 H 8.813240 -1.215927 -16.234737 0
M  V30 39 H 9.010066 -2.722096 -17.091662 0
M  V30 40 H 11.953796 6.698652 -17.786473 0
M  V30 41 H 4.634836 -2.500355 -20.700121 0
M  V30 42 H 5.721126 -3.697047 -20.014871 0
M  V30 43 H 5.150687 -2.371738 -19.028791 0
M  V30 44 H 6.915025 -1.849032 -17.701782 0
M  V30 45 H 7.388459 2.588423 -17.279901 0
M  V30 46 H 5.989861 -0.296956 -16.459425 0
M  V30 47 H 7.440403 0.562684 -15.990039 0
M  V30 48 H 6.098856 1.411192 -16.738670 0
M  V30 49 H 16.077920 3.214052 -19.034075 0
M  V30 50 H 5.261124 -0.175331 -18.768733 0
M  V30 51 H 10.634836 5.379700 -14.935960 0
M  V30 52 H 10.296773 6.399969 -16.291669 0
M  V30 53 H 9.650398 6.183561 -20.175985 0
M  V30 54 H 9.692442 6.446880 -18.475108 0
M  V30 55 H 5.434839 -0.183220 -21.198988 0
M  V30 56 H 17.545233 5.207953 -18.809347 0
M  V30 57 H 13.078628 7.958171 -17.775089 0
M  V30 58 H 11.832433 3.801914 -16.805243 0
M  V30 59 H 12.574469 5.093109 -15.962976 0
M  V30 60 H 8.935614 3.925682 -20.001767 0
M  V30 61 H 7.889771 4.895450 -19.010365 0
M  V30 62 H 11.835761 5.833218 -20.082700 0
M  V30 63 H 11.487292 4.239413 -19.517208 0
M  V30 64 H 4.917535 1.662178 -19.968176 0
M  V30 65 H 8.809846 -1.655716 -20.036498 0
M  V30 66 H 8.058620 -3.059395 -19.391742 0
M  V30 END ATOM
M  V30 BEGIN BOND
M  V30 1 1 7 1
M  V30 2 1 11 2
M  V30 3 1 12 8
M  V30 4 2 13 5
M  V30 5 1 14 2
M  V30 6 1 14 13
M  V30 7 1 16 7
M  V30 8 1 18 11
M  V30 9 2 19 4
M  V30 10 1 21 4
M  V30 11 2 21 7
M  V30 12 1 21 9
M  V30 13 1 22 6
M  V30 14 1 22 17
M  V30 15 1 23 12
M  V30 16 1 23 13
M  V30 17 1 23 15 CFG=1
M  V30 18 1 23 17
M  V30 19 2 24 16
M  V30 20 1 24 19
M  V30 21 1 25 4
M  V30 22 1 26 19
M  V30 23 1 27 9
M  V30 24 1 27 18
M  V30 25 1 28 3
M  V30 26 1 28 10
M  V30 27 1 28 22
M  V30 28 1 29 2
M  V30 29 1 29 20
M  V30 30 1 30 9
M  V30 31 1 30 20
M  V30 32 1 31 17
M  V30 33 1 32 12
M  V30 34 1 32 28
M  V30 35 1 2 33 CFG=3
M  V30 36 1 34 3
M  V30 37 1 35 3
M  V30 38 1 36 3
M  V30 39 1 37 8
M  V30 40 1 38 8
M  V30 41 1 39 8
M  V30 42 1 9 40 CFG=1
M  V30 43 1 41 10
M  V30 44 1 42 10
M  V30 45 1 43 10
M  V30 46 1 12 44 CFG=1
M  V30 47 1 45 14
M  V30 48 1 46 15
M  V30 49 1 47 15
M  V30 50 1 48 15
M  V30 51 1 49 16
M  V30 52 1 17 50 CFG=1
M  V30 53 1 51 18
M  V30 54 1 52 18
M  V30 55 1 53 20
M  V30 56 1 54 20
M  V30 57 1 22 55 CFG=3
M  V30 58 1 56 24
M  V30 59 1 57 25
M  V30 60 1 58 27
M  V30 61 1 59 27
M  V30 62 1 60 29
M  V30 63 1 61 29
M  V30 64 1 62 30
M  V30 65 1 63 30
M  V30 66 1 64 31
M  V30 67 1 65 32
M  V30 68 1 66 32
M  V30 END BOND
M  V30 END CTAB
M  END
>  <i_epik_Tot_Q>  (1) 
0

>  <i_epik_Tot_abs_Q>  (1) 
0

>  <i_i_glide_confnum>  (1) 
363

>  <i_i_glide_lignum>  (1) 
186

>  <i_i_glide_posenum>  (1) 
147

>  <i_i_glide_rotatable_bonds>  (1) 
6

>  <i_lp_mmshare_version>  (1) 
72125

>  <i_m_source_file_index>  (1) 
93

>  <i_f3d_flags>  (1) 
0

>  <num_sample>  (1) 
100

>  <b_lp_Chiralities_Consistent>  (1) 
1

>  <r_epik_Charging_Adjusted_Penalty>  (1) 
0.13644680827592012

>  <r_epik_Ionization_Penalty>  (1) 
0.1364473086823538

>  <r_epik_Ionization_Penalty_Charging>  (1) 
0

>  <r_epik_Ionization_Penalty_Neutral>  (1) 
0.1364473086823538

>  <r_epik_State_Penalty>  (1) 
0.13644680827592012

>  <r_glide_ring_energy>  (1) 
2.2024039784510827

>  <r_i_docking_score>  (1) 
-1.9444970031157889

>  <r_i_glide_ecoul>  (1) 
-2.5033283387600913

>  <r_i_glide_eff_state_penalty>  (1) 
0.13644680827592012

>  <r_i_glide_einternal>  (1) 
1.8030628883725228

>  <r_i_glide_emodel>  (1) 
-32.781524403288486

>  <r_i_glide_emodel_strain>  (1) 
0.022309989475644443

>  <r_i_glide_energy>  (1) 
-29.882629913418764

>  <r_i_glide_erotb>  (1) 
0.33940478494589921

>  <r_i_glide_esite>  (1) 
0

>  <r_i_glide_evdw>  (1) 
-27.379301574658673

>  <r_i_glide_gscore>  (1) 
-2.0809438113917089

>  <r_i_glide_gscore_strain>  (1) 
0

>  <r_i_glide_hbond>  (1) 
0

>  <r_i_glide_ligand_efficiency>  (1) 
-0.060765531347368403

>  <r_i_glide_ligand_efficiency_ln>  (1) 
-0.43542588398402943

>  <r_i_glide_ligand_efficiency_sa>  (1) 
-0.19291853676843843

>  <r_i_glide_lipo>  (1) 
-0.49093769641904167

>  <r_i_glide_metal>  (1) 
-0

>  <r_i_glide_rewards>  (1) 
-0.18494657037161905

>  <r_lp_Energy>  (1) 
81.464282999999995

>  <r_lp_tautomer_probability>  (1) 
0.99999999999736477

>  <s_epik_Chemistry_Notes>  (1) 
This compound contains an acetal/aminal-like group ( X-CH(R)-Y where X, Y are N, S, or O) that may be acid/base labile, releasing an aldehyde.

>  <s_epik_cmdline>  (1) 
J2VwaWtfcHl0aG9uJywgJy1waHQnLCAnMS4wJywgJy1waCcsICc3LjQnLCAnLXRuJywgJzgnLCAnLW1hJywgJzUwMCcsICctaW1hZScsICc8aW5maWxlLm1hZT4nLCAnLW9tYWUnLCAnPG91dGZpbGUubWFlPic=

>  <s_epik_input>  (1) 
W09IXWMxYyhGKVtjSF1bY0hdYyhGKWMxW0NAQEhdKFtDSDJdW0NIMl1bQ0gyXTIpW0NIMl1bQ0gyXVNbQ0BIXTJbTkhdQyg9UylbQ0BdMyhbQ0gzXSlbQ0BIXShbQ0gzXSlbQ0gyXUMoW0NIM10pKFtDSDNdKVtDQEhdKEYpW0NAQEhdM1tPSF0=

>  <s_glide_docking_method>  (1) 
confgen

>  <s_i_glide_gridfile>  (1) 
gpcr_drd2_6luq_protein_autoprepared_prepared

>  <s_lp_Force_Field>  (1) 
S-OPLS

>  <s_lp_Variant>  (1) 
DiffSBDD_92_num_sample_100-1

>  <s_m_source_file>  (1) 
generated__ligand_DiffSBDD_2026-05-06_prepared.sdf

>  <GenAI_Model>  (1) 
DiffSBDD

>  <Protein>  (1) 
generic_title2

$$$$
DiffSBDD_52_num_sample_100
     RDKit          3D

  0  0  0  0  0  0  0  0  0  0999 V3000
M  V30 BEGIN CTAB
M  V30 COUNTS 53 55 0 0 1
M  V30 BEGIN ATOM
M  V30 1 C 8.853395 6.237865 -11.427238 0
M  V30 2 N 7.764538 5.446981 -19.729178 0
M  V30 3 C 6.767758 4.190464 -13.884643 0
M  V30 4 C 8.081001 6.739921 -20.315044 0
M  V30 5 N 8.323445 7.604138 -11.491656 0 CHG=1
M  V30 6 N 7.215218 1.948301 -15.697200 0
M  V30 7 O 9.866957 5.261640 -18.855731 0
M  V30 8 C 6.895944 7.023254 -21.240855 0 CFG=2
M  V30 9 C 4.631810 5.890313 -21.609387 0
M  V30 10 C 8.754380 4.750942 -19.032575 0
M  V30 11 N 7.784366 -0.238949 -16.394599 0
M  V30 12 C 7.152959 4.907295 -12.738044 0
M  V30 13 C 7.671158 4.033166 -14.956931 0
M  V30 14 C 6.698449 8.513940 -21.562371 0
M  V30 15 C 5.703896 6.293115 -20.582711 0
M  V30 16 N 9.542034 0.254178 -17.875764 0
M  V30 17 C 6.366592 5.044753 -19.958055 0
M  V30 18 C 9.339469 5.327203 -13.735940 0
M  V30 19 C 8.986358 1.360469 -17.451583 0
M  V30 20 C 9.416248 2.723994 -17.913444 0
M  V30 21 C 7.965220 1.043038 -16.503815 0
M  V30 22 O 7.303204 3.315204 -16.063638 0
M  V30 23 C 8.440550 5.473723 -12.661097 0
M  V30 24 O 8.784350 -0.767728 -17.247458 0
M  V30 25 C 8.954093 4.608665 -14.883241 0
M  V30 26 O 7.212631 2.864726 -18.800511 0 CHG=-1
M  V30 27 N 8.422261 3.446980 -18.573413 0
M  V30 28 O 10.578175 3.115256 -17.752699 0
M  V30 29 C 5.042771 7.145747 -19.474622 0
M  V30 30 H 8.453253 5.741083 -10.541935 0
M  V30 31 H 9.937420 6.259046 -11.320209 0
M  V30 32 H 5.783325 3.754079 -13.941255 0
M  V30 33 H 8.162775 7.474526 -19.518064 0
M  V30 34 H 9.021662 6.724702 -20.868986 0
M  V30 35 H 7.834839 7.770095 -10.593991 0
M  V30 36 H 9.064233 8.276326 -11.609891 0
M  V30 37 H 7.109606 6.514117 -22.183188 0
M  V30 38 H 5.060659 5.326626 -22.437154 0
M  V30 39 H 3.866170 5.267694 -21.145174 0
M  V30 40 H 4.135629 6.764169 -22.029714 0
M  V30 41 H 6.461737 5.020708 -11.914542 0
M  V30 42 H 6.557399 9.107187 -20.658793 0
M  V30 43 H 7.563584 8.918450 -22.087731 0
M  V30 44 H 5.827679 8.660118 -22.201709 0
M  V30 45 H 6.330420 4.215541 -20.667586 0
M  V30 46 H 5.820722 4.781450 -19.050142 0
M  V30 47 H 10.328053 5.761121 -13.680296 0
M  V30 48 H 9.646180 4.493312 -15.702593 0
M  V30 49 H 5.764426 7.446283 -18.715132 0
M  V30 50 H 4.590269 8.052170 -19.876671 0
M  V30 51 H 4.247910 6.592467 -18.973033 0
M  V30 52 H 7.655307 7.675631 -12.242831 0
M  V30 53 H 6.264304 1.716569 -15.451456 0
M  V30 END ATOM
M  V30 BEGIN BOND
M  V30 1 1 4 2
M  V30 2 1 5 1
M  V30 3 1 8 4
M  V30 4 1 10 2
M  V30 5 2 10 7
M  V30 6 2 12 3
M  V30 7 1 13 3
M  V30 8 1 14 8
M  V30 9 1 15 8
M  V30 10 1 15 9
M  V30 11 1 17 2
M  V30 12 1 17 15
M  V30 13 2 19 16
M  V30 14 1 20 19
M  V30 15 1 21 6
M  V30 16 2 21 11
M  V30 17 1 21 19
M  V30 18 1 22 6
M  V30 19 1 22 13
M  V30 20 1 23 1
M  V30 21 1 23 12
M  V30 22 2 23 18
M  V30 23 1 24 11
M  V30 24 1 24 16
M  V30 25 2 25 13
M  V30 26 1 25 18
M  V30 27 1 27 10
M  V30 28 1 27 20
M  V30 29 1 27 26
M  V30 30 2 28 20
M  V30 31 1 29 15
M  V30 32 1 30 1
M  V30 33 1 31 1
M  V30 34 1 32 3
M  V30 35 1 33 4
M  V30 36 1 34 4
M  V30 37 1 35 5
M  V30 38 1 36 5
M  V30 39 1 8 37 CFG=3
M  V30 40 1 38 9
M  V30 41 1 39 9
M  V30 42 1 40 9
M  V30 43 1 41 12
M  V30 44 1 42 14
M  V30 45 1 43 14
M  V30 46 1 44 14
M  V30 47 1 45 17
M  V30 48 1 46 17
M  V30 49 1 47 18
M  V30 50 1 48 25
M  V30 51 1 49 29
M  V30 52 1 50 29
M  V30 53 1 51 29
M  V30 54 1 52 5
M  V30 55 1 53 6
M  V30 END BOND
M  V30 END CTAB
M  END
>  <i_epik_Tot_Q>  (1) 
0

>  <i_epik_Tot_abs_Q>  (1) 
2

>  <i_i_glide_confnum>  (1) 
184

>  <i_i_glide_lignum>  (1) 
98

>  <i_i_glide_posenum>  (1) 
135

>  <i_i_glide_rotatable_bonds>  (1) 
8

>  <i_lp_mmshare_version>  (1) 
72125

>  <i_m_source_file_index>  (1) 
53

>  <i_f3d_flags>  (1) 
0

>  <num_sample>  (1) 
100

>  <b_lp_Chiralities_Consistent>  (1) 
1

>  <r_epik_Charging_Adjusted_Penalty>  (1) 
0.77952941266153319

>  <r_epik_Ionization_Penalty>  (1) 
0.7795476472939552

>  <r_epik_Ionization_Penalty_Charging>  (1) 
0.080812989066233118

>  <r_epik_Ionization_Penalty_Neutral>  (1) 
0.69873465822772207

>  <r_epik_State_Penalty>  (1) 
0.69871642359530006

>  <r_glide_ring_energy>  (1) 
0.88900172443488756

>  <r_i_docking_score>  (1) 
-1.8971455153284154

>  <r_i_glide_ecoul>  (1) 
-6.2901187949765243

>  <r_i_glide_eff_state_penalty>  (1) 
0.69871642359530006

>  <r_i_glide_einternal>  (1) 
8.6165759083927043

>  <r_i_glide_emodel>  (1) 
-33.617078551603207

>  <r_i_glide_emodel_strain>  (1) 
2.2034332469184221

>  <r_i_glide_energy>  (1) 
-33.02858132574994

>  <r_i_glide_erotb>  (1) 
0.84066204516479937

>  <r_i_glide_esite>  (1) 
-0.12180605714783183

>  <r_i_glide_evdw>  (1) 
-26.738462530773418

>  <r_i_glide_gscore>  (1) 
-2.5958619389237154

>  <r_i_glide_gscore_strain>  (1) 
0

>  <r_i_glide_hbond>  (1) 
-0.17362089095437622

>  <r_i_glide_ligand_efficiency>  (1) 
-0.065418810873393629

>  <r_i_glide_ligand_efficiency_ln>  (1) 
-0.43439821555076352

>  <r_i_glide_ligand_efficiency_sa>  (1) 
-0.20098731336268755

>  <r_i_glide_lipo>  (1) 
-1.271714212131893

>  <r_i_glide_metal>  (1) 
-0

>  <r_i_glide_rewards>  (1) 
0.41105812193073565

>  <r_lp_Energy>  (1) 
48.879171999999997

>  <s_epik_Chemistry_Notes>  (1) 
This compound has a N-S or N-O group and may undergo hydrolysis at high or low pH.

>  <s_epik_cmdline>  (1) 
J2VwaWtfcHl0aG9uJywgJy1waHQnLCAnMS4wJywgJy1waCcsICc3LjQnLCAnLXRuJywgJzgnLCAnLW1hJywgJzUwMCcsICctaW1hZScsICc8aW5maWxlLm1hZT4nLCAnLW9tYWUnLCAnPG91dGZpbGUubWFlPic=

>  <s_epik_input>  (1) 
W05IMl1bQ0gyXWMoW2NIXVtjSF0xKVtjSF1bY0hdYzFPL049YzIvW25IXW9uYzJDKD1PKU4oW09IXSlDKD1PKU4oW0NIMl0zKVtDSDJdW0NASF0oW0NIM10pQzMoW0NIM10pW0NIM10=

>  <s_glide_docking_method>  (1) 
confgen

>  <s_i_glide_gridfile>  (1) 
gpcr_drd2_6luq_protein_autoprepared_prepared

>  <s_lp_Force_Field>  (1) 
S-OPLS

>  <s_lp_Variant>  (1) 
DiffSBDD_52_num_sample_100-2

>  <s_m_source_file>  (1) 
generated__ligand_DiffSBDD_2026-05-06_prepared.sdf

>  <GenAI_Model>  (1) 
DiffSBDD

>  <Protein>  (1) 
generic_title2

$$$$
DiffSBDD_84_num_sample_100
     RDKit          3D

  0  0  0  0  0  0  0  0  0  0999 V3000
M  V30 BEGIN CTAB
M  V30 COUNTS 78 81 0 0 1
M  V30 BEGIN ATOM
M  V30 1 O 9.937546 4.569310 -16.128237 0
M  V30 2 C 7.079145 1.030662 -13.755619 0
M  V30 3 C 5.434821 7.281294 -13.763659 0
M  V30 4 C 11.565489 8.895224 -8.285373 0
M  V30 5 O 12.700201 8.045754 -22.418873 0
M  V30 6 C 9.527925 7.317340 -7.666924 0
M  V30 7 P 7.769960 4.138291 -18.210024 0 CFG=1
M  V30 8 O 15.075838 8.258528 -18.021213 0
M  V30 9 C 10.653106 7.369313 -10.048617 0
M  V30 10 C 6.941610 3.821796 -14.093485 0
M  V30 11 O 7.734797 4.115453 -16.575965 0
M  V30 12 C 12.354116 4.782828 -18.093642 0
M  V30 13 C 6.497361 3.215717 -12.760044 0
M  V30 14 O 8.991885 5.191367 -13.600766 0
M  V30 15 C 8.802577 4.273998 -15.758185 0
M  V30 16 O 10.310844 6.697102 -20.157731 0
M  V30 17 C 8.703976 5.676449 -18.679004 0
M  V30 18 C 10.698541 7.678619 -8.577216 0
M  V30 19 C 12.225296 6.293671 -18.125429 0 CFG=2
M  V30 20 C 8.471325 4.049296 -14.267566 0 CFG=2
M  V30 21 O 9.218767 4.404117 -11.462156 0
M  V30 22 C 13.137603 7.029446 -19.178232 0 CFG=1
M  V30 23 C 10.829333 6.864683 -21.468907 0
M  V30 24 C 11.638719 3.896359 -18.830259 0
M  V30 25 S 7.206926 7.369304 -13.891123 0
M  V30 26 C 8.860062 2.707245 -18.651341 0
M  V30 27 C 9.630359 5.482867 -19.895495 0 CFG=2
M  V30 28 C 12.565732 8.173399 -20.017673 0
M  V30 29 C 10.541523 4.207537 -19.880973 0 CFG=2
M  V30 30 C 14.037560 7.601557 -18.053484 0
M  V30 31 C 9.630686 2.960916 -19.955421 0
M  V30 32 C 12.090723 7.725916 -21.401081 0
M  V30 33 O 6.631383 1.860436 -12.691723 0
M  V30 34 C 10.775634 6.476548 -7.654710 0
M  V30 35 C 7.647083 7.327387 -12.127939 0
M  V30 36 O 6.437578 4.060249 -18.871870 0
M  V30 37 N 9.434818 7.105437 -10.530411 0
M  V30 38 C 9.101511 6.839108 -11.927722 0 CFG=1
M  V30 39 C 9.137811 5.327166 -12.271324 0
M  V30 40 O 6.055659 3.917140 -11.853173 0
M  V30 41 S 13.103694 7.026554 -16.688554 0
M  V30 42 O 11.660833 7.369361 -10.754358 0
M  V30 43 H 7.080569 -0.007450 -13.422695 0
M  V30 44 H 6.412953 1.092275 -14.616051 0
M  V30 45 H 8.093540 1.276449 -14.067092 0
M  V30 46 H 5.034841 7.459905 -14.759482 0
M  V30 47 H 5.114881 6.298761 -13.419679 0
M  V30 48 H 5.034811 8.022938 -13.071893 0
M  V30 49 H 11.312335 9.324045 -7.315788 0
M  V30 50 H 12.618260 8.610104 -8.268261 0
M  V30 51 H 11.434644 9.666191 -9.046755 0
M  V30 52 H 9.340699 7.963689 -6.811878 0
M  V30 53 H 8.635050 6.846451 -8.074165 0
M  V30 54 H 6.418247 4.762574 -14.229621 0
M  V30 55 H 6.548158 3.182612 -14.880547 0
M  V30 56 H 13.091256 4.395578 -17.405672 0
M  V30 57 H 9.223913 6.089220 -17.825218 0
M  V30 58 H 7.957631 6.430618 -18.928466 0
M  V30 59 H 11.210474 6.650700 -18.059588 0
M  V30 60 H 9.020007 3.194720 -13.884760 0
M  V30 61 H 13.697759 6.310666 -19.778104 0
M  V30 62 H 10.082366 7.342880 -22.102605 0
M  V30 63 H 11.095282 5.920148 -21.938830 0
M  V30 64 H 11.851467 2.845812 -18.692070 0
M  V30 65 H 9.539084 2.484569 -17.829658 0
M  V30 66 H 8.223795 1.829667 -18.766485 0
M  V30 67 H 8.950111 5.362441 -20.741665 0
M  V30 68 H 11.727525 8.641355 -19.500607 0
M  V30 69 H 13.312535 8.955914 -20.157523 0
M  V30 70 H 11.093128 4.191390 -20.818566 0
M  V30 71 H 10.224419 2.077786 -20.195569 0
M  V30 72 H 8.922451 3.060351 -20.779455 0
M  V30 73 H 10.694027 5.481090 -8.088552 0
M  V30 74 H 11.434269 6.547784 -6.791626 0
M  V30 75 H 6.948685 6.684366 -11.588357 0
M  V30 76 H 7.513775 8.335053 -11.732923 0
M  V30 77 H 8.647543 7.182065 -9.891694 0
M  V30 78 H 9.782016 7.391772 -12.577173 0
M  V30 END ATOM
M  V30 BEGIN BOND
M  V30 1 1 7 11 CFG=1
M  V30 2 1 13 10
M  V30 3 2 15 1
M  V30 4 1 15 11
M  V30 5 1 17 7
M  V30 6 1 18 4
M  V30 7 1 18 6
M  V30 8 1 18 9
M  V30 9 1 19 12
M  V30 10 1 20 10
M  V30 11 1 20 14
M  V30 12 1 20 15
M  V30 13 1 22 19
M  V30 14 1 23 16
M  V30 15 2 24 12
M  V30 16 1 25 3
M  V30 17 1 26 7
M  V30 18 1 27 16
M  V30 19 1 27 17
M  V30 20 1 28 22
M  V30 21 1 29 24
M  V30 22 1 29 27
M  V30 23 2 30 8
M  V30 24 1 30 22
M  V30 25 1 31 26
M  V30 26 1 31 29
M  V30 27 2 32 5
M  V30 28 1 32 23
M  V30 29 1 32 28
M  V30 30 1 33 2
M  V30 31 1 33 13
M  V30 32 1 34 6
M  V30 33 1 34 18
M  V30 34 1 35 25
M  V30 35 2 36 7
M  V30 36 1 37 9
M  V30 37 1 38 35
M  V30 38 1 38 37
M  V30 39 1 39 14
M  V30 40 2 39 21
M  V30 41 1 39 38
M  V30 42 2 40 13
M  V30 43 1 41 19
M  V30 44 1 41 30
M  V30 45 2 42 9
M  V30 46 1 43 2
M  V30 47 1 44 2
M  V30 48 1 45 2
M  V30 49 1 46 3
M  V30 50 1 47 3
M  V30 51 1 48 3
M  V30 52 1 49 4
M  V30 53 1 50 4
M  V30 54 1 51 4
M  V30 55 1 52 6
M  V30 56 1 53 6
M  V30 57 1 54 10
M  V30 58 1 55 10
M  V30 59 1 56 12
M  V30 60 1 57 17
M  V30 61 1 58 17
M  V30 62 1 19 59 CFG=3
M  V30 63 1 20 60 CFG=1
M  V30 64 1 22 61 CFG=3
M  V30 65 1 62 23
M  V30 66 1 63 23
M  V30 67 1 64 24
M  V30 68 1 65 26
M  V30 69 1 66 26
M  V30 70 1 27 67 CFG=3
M  V30 71 1 68 28
M  V30 72 1 69 28
M  V30 73 1 29 70 CFG=3
M  V30 74 1 71 31
M  V30 75 1 72 31
M  V30 76 1 73 34
M  V30 77 1 74 34
M  V30 78 1 75 35
M  V30 79 1 76 35
M  V30 80 1 77 37
M  V30 81 1 38 78 CFG=3
M  V30 END BOND
M  V30 END CTAB
M  END
>  <i_epik_Tot_Q>  (1) 
0

>  <i_epik_Tot_abs_Q>  (1) 
0

>  <i_i_glide_confnum>  (1) 
983

>  <i_i_glide_lignum>  (1) 
173

>  <i_i_glide_posenum>  (1) 
32

>  <i_i_glide_rotatable_bonds>  (1) 
14

>  <i_lp_mmshare_version>  (1) 
72125

>  <i_m_source_file_index>  (1) 
85

>  <i_f3d_flags>  (1) 
0

>  <num_sample>  (1) 
100

>  <b_lp_Chiralities_Consistent>  (1) 
1

>  <r_epik_Charging_Adjusted_Penalty>  (1) 
0

>  <r_epik_Ionization_Penalty>  (1) 
7.2332005044410275e-08

>  <r_epik_Ionization_Penalty_Charging>  (1) 
0

>  <r_epik_Ionization_Penalty_Neutral>  (1) 
7.2332005044410275e-08

>  <r_epik_State_Penalty>  (1) 
-0

>  <r_glide_ring_energy>  (1) 
0

>  <r_i_docking_score>  (1) 
-1.8244135209578975

>  <r_i_glide_ecoul>  (1) 
-4.1572736856083718

>  <r_i_glide_eff_state_penalty>  (1) 
-0

>  <r_i_glide_einternal>  (1) 
17.553818226899232

>  <r_i_glide_emodel>  (1) 
-35.120500671302054

>  <r_i_glide_emodel_strain>  (1) 
4.8631005580925972

>  <r_i_glide_energy>  (1) 
-45.297058817438831

>  <r_i_glide_erotb>  (1) 
0.4114608192218252

>  <r_i_glide_esite>  (1) 
-0.12221026234434487

>  <r_i_glide_evdw>  (1) 
-41.139785131830457

>  <r_i_glide_gscore>  (1) 
-1.8244135209578975

>  <r_i_glide_gscore_strain>  (1) 
0.21577513952314931

>  <r_i_glide_hbond>  (1) 
-0.16

>  <r_i_glide_ligand_efficiency>  (1) 
-0.043438417165664225

>  <r_i_glide_ligand_efficiency_ln>  (1) 
-0.38508669197134726

>  <r_i_glide_ligand_efficiency_sa>  (1) 
-0.15099309547954182

>  <r_i_glide_lipo>  (1) 
-1.2701000228836201

>  <r_i_glide_metal>  (1) 
-0

>  <r_i_glide_rewards>  (1) 
1.7812411149578706

>  <r_lp_Energy>  (1) 
16.435652999999999

>  <r_lp_tautomer_probability>  (1) 
1

>  <s_epik_Chemistry_Notes>  (1) 
This compound has an ester and may undergo hydrolysis at high or low pH.

>  <s_epik_cmdline>  (1) 
J2VwaWtfcHl0aG9uJywgJy1waHQnLCAnMS4wJywgJy1waCcsICc3LjQnLCAnLXRuJywgJzgnLCAnLW1hJywgJzUwMCcsICctaW1hZScsICc8aW5maWxlLm1hZT4nLCAnLW9tYWUnLCAnPG91dGZpbGUubWFlPic=

>  <s_epik_input>  (1) 
W0NIMl0xW0NIMl1DMShbQ0gzXSlDKD1PKVtOSF1bQ0BIXShbQ0gyXVNbQ0gzXSlDKD1PKU9bQ0BASF0oW0NIMl1DKD1PKU9bQ0gzXSlDKD1PKU9QKD1PKShbQ0gyXTIpW0NIMl1bQ0gyXVtDQEhdKC9bQ0hdPVtDSF1cMylbQ0BASF0yT1tDSDJdQyg9TylbQ0gyXVtDQEhdKFtDQEBIXTM0KUMoPU8pUzQ=

>  <s_glide_docking_method>  (1) 
confgen

>  <s_i_glide_gridfile>  (1) 
gpcr_drd2_6luq_protein_autoprepared_prepared

>  <s_lp_Force_Field>  (1) 
S-OPLS

>  <s_lp_Variant>  (1) 
DiffSBDD_84_num_sample_100-1

>  <s_m_source_file>  (1) 
generated__ligand_DiffSBDD_2026-05-06_prepared.sdf

>  <GenAI_Model>  (1) 
DiffSBDD

>  <Protein>  (1) 
generic_title2

$$$$
DiffSBDD_52_num_sample_100
     RDKit          3D

  0  0  0  0  0  0  0  0  0  0999 V3000
M  V30 BEGIN CTAB
M  V30 COUNTS 53 55 0 0 1
M  V30 BEGIN ATOM
M  V30 1 C 10.003409 6.690298 -7.118198 0
M  V30 2 N 5.893005 6.294600 -19.426015 0
M  V30 3 C 9.010789 5.095852 -10.441848 0
M  V30 4 C 5.319398 7.369892 -20.225380 0
M  V30 5 N 9.034838 7.697418 -6.691554 0 CHG=1
M  V30 6 N 8.107149 5.698610 -13.164731 0
M  V30 7 O 5.550714 7.467522 -17.497118 0
M  V30 8 C 5.768194 7.040458 -21.650420 0 CFG=2
M  V30 9 C 6.926902 5.026870 -22.723878 0
M  V30 10 C 5.990983 6.449076 -18.039904 0
M  V30 11 N 8.234527 3.337671 -13.353530 0
M  V30 12 C 9.152681 5.317317 -9.060134 0
M  V30 13 C 9.548500 6.020193 -11.362297 0
M  V30 14 C 4.896245 7.688809 -22.738266 0
M  V30 15 C 5.896893 5.501137 -21.682922 0
M  V30 16 N 7.283557 3.126498 -15.485595 0
M  V30 17 C 6.347518 5.157268 -20.245156 0
M  V30 18 C 10.369059 7.383881 -9.517390 0
M  V30 19 C 7.313049 4.388893 -15.125532 0
M  V30 20 C 6.787089 5.590724 -15.928222 0
M  V30 21 C 7.888215 4.491180 -13.850491 0
M  V30 22 O 9.446901 5.798698 -12.704842 0
M  V30 23 C 9.837981 6.458337 -8.596879 0
M  V30 24 O 7.834803 2.440879 -14.373597 0
M  V30 25 C 10.222242 7.164168 -10.897420 0
M  V30 26 O 7.034839 4.253019 -17.900028 0 CHG=-1
M  V30 27 N 6.610763 5.393589 -17.311181 0
M  V30 28 O 6.557293 6.664169 -15.356789 0
M  V30 29 C 4.546317 4.813473 -21.968603 0
M  V30 30 H 9.837247 5.769697 -6.560781 0
M  V30 31 H 11.017661 7.026756 -6.900188 0
M  V30 32 H 8.497085 4.215275 -10.795940 0
M  V30 33 H 4.234919 7.352553 -20.124965 0
M  V30 34 H 5.673939 8.358455 -19.926873 0
M  V30 35 H 9.069668 7.818084 -5.690672 0
M  V30 36 H 9.216052 8.567470 -7.168367 0
M  V30 37 H 6.774342 7.449836 -21.758417 0
M  V30 38 H 7.906898 5.469407 -22.544216 0
M  V30 39 H 7.047836 3.943881 -22.694987 0
M  V30 40 H 6.623080 5.294877 -23.735871 0
M  V30 41 H 8.742947 4.607826 -8.356473 0
M  V30 42 H 3.848906 7.401274 -22.647475 0
M  V30 43 H 4.940722 8.775476 -22.667495 0
M  V30 44 H 5.237947 7.407738 -23.734421 0
M  V30 45 H 7.435518 5.079102 -20.203858 0
M  V30 46 H 5.889074 4.206835 -19.966651 0
M  V30 47 H 10.893564 8.260155 -9.164611 0
M  V30 48 H 10.635789 7.865790 -11.601843 0
M  V30 49 H 3.790595 5.120404 -21.246718 0
M  V30 50 H 4.171823 5.041860 -22.966527 0
M  V30 51 H 4.635884 3.728123 -21.906974 0
M  V30 52 H 8.101303 7.382199 -6.960633 0
M  V30 53 H 7.904891 6.536911 -13.695556 0
M  V30 END ATOM
M  V30 BEGIN BOND
M  V30 1 1 4 2
M  V30 2 1 5 1
M  V30 3 1 8 4
M  V30 4 1 10 2
M  V30 5 2 10 7
M  V30 6 2 12 3
M  V30 7 1 13 3
M  V30 8 1 14 8
M  V30 9 1 15 8
M  V30 10 1 15 9
M  V30 11 1 17 2
M  V30 12 1 17 15
M  V30 13 2 19 16
M  V30 14 1 20 19
M  V30 15 1 21 6
M  V30 16 2 21 11
M  V30 17 1 21 19
M  V30 18 1 22 6
M  V30 19 1 22 13
M  V30 20 1 23 1
M  V30 21 1 23 12
M  V30 22 2 23 18
M  V30 23 1 24 11
M  V30 24 1 24 16
M  V30 25 2 25 13
M  V30 26 1 25 18
M  V30 27 1 27 10
M  V30 28 1 27 20
M  V30 29 1 27 26
M  V30 30 2 28 20
M  V30 31 1 29 15
M  V30 32 1 30 1
M  V30 33 1 31 1
M  V30 34 1 32 3
M  V30 35 1 33 4
M  V30 36 1 34 4
M  V30 37 1 35 5
M  V30 38 1 36 5
M  V30 39 1 8 37 CFG=1
M  V30 40 1 38 9
M  V30 41 1 39 9
M  V30 42 1 40 9
M  V30 43 1 41 12
M  V30 44 1 42 14
M  V30 45 1 43 14
M  V30 46 1 44 14
M  V30 47 1 45 17
M  V30 48 1 46 17
M  V30 49 1 47 18
M  V30 50 1 48 25
M  V30 51 1 49 29
M  V30 52 1 50 29
M  V30 53 1 51 29
M  V30 54 1 52 5
M  V30 55 1 53 6
M  V30 END BOND
M  V30 END CTAB
M  END
>  <i_epik_Tot_Q>  (1) 
0

>  <i_epik_Tot_abs_Q>  (1) 
2

>  <i_i_glide_confnum>  (1) 
218

>  <i_i_glide_lignum>  (1) 
98

>  <i_i_glide_posenum>  (1) 
177

>  <i_i_glide_rotatable_bonds>  (1) 
8

>  <i_lp_mmshare_version>  (1) 
72125

>  <i_m_source_file_index>  (1) 
53

>  <i_f3d_flags>  (1) 
0

>  <num_sample>  (1) 
100

>  <b_lp_Chiralities_Consistent>  (1) 
1

>  <r_epik_Charging_Adjusted_Penalty>  (1) 
0.77952941266153319

>  <r_epik_Ionization_Penalty>  (1) 
0.7795476472939552

>  <r_epik_Ionization_Penalty_Charging>  (1) 
0.080812989066233118

>  <r_epik_Ionization_Penalty_Neutral>  (1) 
0.69873465822772207

>  <r_epik_State_Penalty>  (1) 
0.69871642359530006

>  <r_glide_ring_energy>  (1) 
0.88900172443488756

>  <r_i_docking_score>  (1) 
-1.7977067693974658

>  <r_i_glide_ecoul>  (1) 
-0.59626879368459074

>  <r_i_glide_eff_state_penalty>  (1) 
0.69871642359530006

>  <r_i_glide_einternal>  (1) 
10.495446831330312

>  <r_i_glide_emodel>  (1) 
-37.476716246240542

>  <r_i_glide_emodel_strain>  (1) 
0.23327413409838016

>  <r_i_glide_energy>  (1) 
-36.129480872435444

>  <r_i_glide_erotb>  (1) 
0.84066204516479937

>  <r_i_glide_esite>  (1) 
-0.078952502246591866

>  <r_i_glide_evdw>  (1) 
-35.53321207875085

>  <r_i_glide_gscore>  (1) 
-2.4964231929927658

>  <r_i_glide_gscore_strain>  (1) 
0

>  <r_i_glide_hbond>  (1) 
-0.20000000000000001

>  <r_i_glide_ligand_efficiency>  (1) 
-0.061989888599912613

>  <r_i_glide_ligand_efficiency_ln>  (1) 
-0.41162926428160768

>  <r_i_glide_ligand_efficiency_sa>  (1) 
-0.19045257776790284

>  <r_i_glide_lipo>  (1) 
-0.78385086007332061

>  <r_i_glide_metal>  (1) 
-0

>  <r_i_glide_rewards>  (1) 
-0.40818095284742117

>  <r_lp_Energy>  (1) 
48.879171999999997

>  <s_epik_Chemistry_Notes>  (1) 
This compound has a N-S or N-O group and may undergo hydrolysis at high or low pH.

>  <s_epik_cmdline>  (1) 
J2VwaWtfcHl0aG9uJywgJy1waHQnLCAnMS4wJywgJy1waCcsICc3LjQnLCAnLXRuJywgJzgnLCAnLW1hJywgJzUwMCcsICctaW1hZScsICc8aW5maWxlLm1hZT4nLCAnLW9tYWUnLCAnPG91dGZpbGUubWFlPic=

>  <s_epik_input>  (1) 
W05IMl1bQ0gyXWMoW2NIXVtjSF0xKVtjSF1bY0hdYzFPL049YzIvW25IXW9uYzJDKD1PKU4oW09IXSlDKD1PKU4oW0NIMl0zKVtDSDJdW0NASF0oW0NIM10pQzMoW0NIM10pW0NIM10=

>  <s_glide_docking_method>  (1) 
confgen

>  <s_i_glide_gridfile>  (1) 
gpcr_drd2_6luq_protein_autoprepared_prepared

>  <s_lp_Force_Field>  (1) 
S-OPLS

>  <s_lp_Variant>  (1) 
DiffSBDD_52_num_sample_100-2

>  <s_m_source_file>  (1) 
generated__ligand_DiffSBDD_2026-05-06_prepared.sdf

>  <GenAI_Model>  (1) 
DiffSBDD

>  <Protein>  (1) 
generic_title2

$$$$
DiffSBDD_64_num_sample_100
     RDKit          3D

  0  0  0  0  0  0  0  0  0  0999 V3000
M  V30 BEGIN CTAB
M  V30 COUNTS 76 80 0 0 1
M  V30 BEGIN ATOM
M  V30 1 N 13.551719 4.991260 -20.406374 0
M  V30 2 C 12.904270 2.850496 -19.634423 0 CFG=1
M  V30 3 C 8.774172 6.196076 -19.494865 0
M  V30 4 C 6.247505 1.089347 -22.010343 0
M  V30 5 C 14.289720 2.334945 -19.233187 0
M  V30 6 C 14.033678 1.723381 -17.857584 0
M  V30 7 C 8.222709 2.939905 -20.690799 0 CFG=1
M  V30 8 O 7.606734 2.660646 -19.447189 0
M  V30 9 O 10.903412 3.266297 -18.298877 0
M  V30 10 C 6.606487 5.833970 -20.789009 0
M  V30 11 C 6.529819 2.466206 -22.627875 0
M  V30 12 C 13.771197 5.681942 -21.672138 0
M  V30 13 F 15.146634 1.652570 -17.127043 0
M  V30 14 C 9.084862 1.738356 -21.140878 0 CFG=2
M  V30 15 O 5.764977 6.631062 -20.367364 0
M  V30 16 C 12.309824 3.447766 -18.340126 0 CFG=1
M  V30 17 O 8.156048 6.325557 -23.335163 0
M  V30 18 C 8.967094 6.113587 -22.188228 0 CFG=2
M  V30 19 C 12.453105 5.929900 -22.426799 0
M  V30 20 C 9.814063 8.580362 -22.264181 0
M  V30 21 C 12.959310 2.611881 -17.205990 0
M  V30 22 C 11.450923 6.715639 -21.561109 0 CFG=1
M  V30 23 C 8.099809 6.307165 -20.893603 0 CFG=2
M  V30 24 C 12.620278 5.725329 -19.538826 0 CFG=2
M  V30 25 C 10.170079 7.082649 -22.367908 0 CFG=1
M  V30 26 C 10.218251 6.701812 -19.339296 0
M  V30 27 O 9.794163 2.021634 -22.330944 0
M  V30 28 O 7.373114 0.247739 -22.193982 0
M  V30 29 C 7.209261 3.530197 -21.713787 0 CFG=1
M  V30 30 O 12.915186 3.733672 -20.756291 0
M  V30 31 C 12.644626 4.949471 -18.202087 0
M  V30 32 C 8.396472 0.358715 -21.218778 0
M  V30 33 N 6.262209 4.543742 -21.142113 0
M  V30 34 F 13.542144 0.493466 -18.020333 0
M  V30 35 C 4.864957 4.105383 -20.973414 0
M  V30 36 C 11.234564 5.954206 -20.226102 0 CFG=1
M  V30 37 H 12.312547 1.981389 -19.925488 0
M  V30 38 H 8.716656 5.188342 -19.095374 0
M  V30 39 H 8.166713 6.770044 -18.793125 0
M  V30 40 H 5.921769 1.129118 -20.970987 0
M  V30 41 H 5.434839 0.631031 -22.571644 0
M  V30 42 H 14.999341 3.157776 -19.142782 0
M  V30 43 H 14.698117 1.619607 -19.947757 0
M  V30 44 H 8.957644 3.708086 -20.498269 0
M  V30 45 H 8.285302 2.486400 -18.811446 0
M  V30 46 H 10.583991 3.631646 -17.487168 0
M  V30 47 H 5.620044 2.859310 -23.079396 0
M  V30 48 H 7.170215 2.290170 -23.494468 0
M  V30 49 H 14.273578 6.629476 -21.474265 0
M  V30 50 H 14.450140 5.088801 -22.285406 0
M  V30 51 H 9.862146 1.626460 -20.383645 0
M  V30 52 H 7.519026 5.631398 -23.402467 0
M  V30 53 H 9.413038 5.123729 -22.237919 0
M  V30 54 H 12.678403 6.484052 -23.338471 0
M  V30 55 H 12.012676 4.984926 -22.747736 0
M  V30 56 H 9.574066 8.893685 -21.250550 0
M  V30 57 H 10.647787 9.195813 -22.603562 0
M  V30 58 H 8.961774 8.832533 -22.895529 0
M  V30 59 H 13.401346 3.254265 -16.442934 0
M  V30 60 H 12.232782 1.985225 -16.691716 0
M  V30 61 H 11.949651 7.654735 -21.315119 0
M  V30 62 H 7.915595 7.379282 -20.950268 0
M  V30 63 H 13.056836 6.706295 -19.344800 0
M  V30 64 H 10.459678 6.976945 -23.415465 0
M  V30 65 H 10.466929 6.568921 -18.290811 0
M  V30 66 H 10.281619 7.778458 -19.492165 0
M  V30 67 H 10.314208 1.266370 -22.558604 0
M  V30 68 H 7.764925 4.016196 -22.492332 0
M  V30 69 H 12.033733 5.416526 -17.431798 0
M  V30 70 H 13.663786 5.040560 -17.822286 0
M  V30 71 H 7.985612 0.088256 -20.245001 0
M  V30 72 H 9.144169 -0.402033 -21.444204 0
M  V30 73 H 4.336769 4.658090 -20.195793 0
M  V30 74 H 4.303319 4.242831 -21.897500 0
M  V30 75 H 4.797341 3.061758 -20.673228 0
M  V30 76 H 10.822924 4.970593 -20.442399 0
M  V30 END ATOM
M  V30 BEGIN BOND
M  V30 1 1 5 2
M  V30 2 1 6 5
M  V30 3 1 8 7
M  V30 4 1 11 4
M  V30 5 1 12 1
M  V30 6 1 13 6
M  V30 7 1 14 7
M  V30 8 2 15 10
M  V30 9 1 16 2
M  V30 10 1 16 9 CFG=3
M  V30 11 1 18 17
M  V30 12 1 19 12
M  V30 13 1 21 6
M  V30 14 1 21 16
M  V30 15 1 22 19
M  V30 16 1 23 3
M  V30 17 1 23 10
M  V30 18 1 23 18
M  V30 19 1 24 1
M  V30 20 1 25 18
M  V30 21 1 25 20
M  V30 22 1 25 22
M  V30 23 1 26 3
M  V30 24 1 27 14
M  V30 25 1 28 4
M  V30 26 1 29 7
M  V30 27 1 29 11
M  V30 28 1 30 1
M  V30 29 1 30 2
M  V30 30 1 31 16
M  V30 31 1 31 24
M  V30 32 1 32 14
M  V30 33 1 32 28
M  V30 34 1 33 10
M  V30 35 1 33 29
M  V30 36 1 34 6
M  V30 37 1 35 33
M  V30 38 1 36 22
M  V30 39 1 36 24
M  V30 40 1 36 26
M  V30 41 1 2 37 CFG=3
M  V30 42 1 38 3
M  V30 43 1 39 3
M  V30 44 1 40 4
M  V30 45 1 41 4
M  V30 46 1 42 5
M  V30 47 1 43 5
M  V30 48 1 7 44 CFG=1
M  V30 49 1 45 8
M  V30 50 1 46 9
M  V30 51 1 47 11
M  V30 52 1 48 11
M  V30 53 1 49 12
M  V30 54 1 50 12
M  V30 55 1 14 51 CFG=1
M  V30 56 1 52 17
M  V30 57 1 18 53 CFG=3
M  V30 58 1 54 19
M  V30 59 1 55 19
M  V30 60 1 56 20
M  V30 61 1 57 20
M  V30 62 1 58 20
M  V30 63 1 59 21
M  V30 64 1 60 21
M  V30 65 1 22 61 CFG=1
M  V30 66 1 23 62 CFG=3
M  V30 67 1 24 63 CFG=1
M  V30 68 1 25 64 CFG=3
M  V30 69 1 65 26
M  V30 70 1 66 26
M  V30 71 1 67 27
M  V30 72 1 29 68 CFG=3
M  V30 73 1 69 31
M  V30 74 1 70 31
M  V30 75 1 71 32
M  V30 76 1 72 32
M  V30 77 1 73 35
M  V30 78 1 74 35
M  V30 79 1 75 35
M  V30 80 1 36 76 CFG=3
M  V30 END BOND
M  V30 END CTAB
M  END
>  <i_epik_Tot_Q>  (1) 
0

>  <i_epik_Tot_abs_Q>  (1) 
0

>  <i_i_glide_confnum>  (1) 
89

>  <i_i_glide_lignum>  (1) 
127

>  <i_i_glide_posenum>  (1) 
243

>  <i_i_glide_rotatable_bonds>  (1) 
7

>  <i_lp_mmshare_version>  (1) 
72125

>  <i_m_source_file_index>  (1) 
65

>  <i_f3d_flags>  (1) 
0

>  <num_sample>  (1) 
100

>  <b_lp_Chiralities_Consistent>  (1) 
1

>  <r_epik_Charging_Adjusted_Penalty>  (1) 
0.0074276549920260261

>  <r_epik_Ionization_Penalty>  (1) 
0.0074281302473017232

>  <r_epik_Ionization_Penalty_Charging>  (1) 
0

>  <r_epik_Ionization_Penalty_Neutral>  (1) 
0.0074281302473017232

>  <r_epik_State_Penalty>  (1) 
0.0074276549920260261

>  <r_glide_ring_energy>  (1) 
2.320202457047039

>  <r_i_docking_score>  (1) 
-1.7868437367316785

>  <r_i_glide_ecoul>  (1) 
-1.7206350684748397

>  <r_i_glide_eff_state_penalty>  (1) 
0.0074276549920260261

>  <r_i_glide_einternal>  (1) 
6.0505840149288552

>  <r_i_glide_emodel>  (1) 
-17.491331065666841

>  <r_i_glide_emodel_strain>  (1) 
0

>  <r_i_glide_energy>  (1) 
-18.846334645674105

>  <r_i_glide_erotb>  (1) 
0.22910757355035372

>  <r_i_glide_esite>  (1) 
-0.021068424041247896

>  <r_i_glide_evdw>  (1) 
-17.125699577199267

>  <r_i_glide_gscore>  (1) 
-1.7942713917237045

>  <r_i_glide_gscore_strain>  (1) 
0

>  <r_i_glide_hbond>  (1) 
0

>  <r_i_glide_ligand_efficiency>  (1) 
-0.049634548242546622

>  <r_i_glide_ligand_efficiency_ln>  (1) 
-0.38984102841594243

>  <r_i_glide_ligand_efficiency_sa>  (1) 
-0.16388966732863963

>  <r_i_glide_lipo>  (1) 
-0.57128724963770638

>  <r_i_glide_metal>  (1) 
-0

>  <r_i_glide_rewards>  (1) 
-0.31664305246391483

>  <r_lp_Energy>  (1) 
55.332492999999999

>  <s_epik_Chemistry_Notes>  (1) 
This compound has a N-S or N-O group and may undergo hydrolysis at high or low pH.

>  <s_epik_cmdline>  (1) 
J2VwaWtfcHl0aG9uJywgJy1waHQnLCAnMS4wJywgJy1waCcsICc3LjQnLCAnLXRuJywgJzgnLCAnLW1hJywgJzUwMCcsICctaW1hZScsICc8aW5maWxlLm1hZT4nLCAnLW9tYWUnLCAnPG91dGZpbGUubWFlPic=

>  <s_epik_input>  (1) 
RkMoRikoW0NIMl0xKVtDSDJdW0NAQEhdKFtDQEBdMTJbT0hdKU9OM1tDQEhdKFtDSDJdMilbQ0BASF00W0NAQEhdKFtDSDJdW0NIMl0zKVtDQEhdKFtDSDNdKVtDQEhdKFtPSF0pW0NASF0oW0NIMl1bQ0gyXTQpQyg9TylOKFtDSDNdKVtDQEBIXTVbQ0gyXVtDSDJdT1tDSDJdW0NAQEhdKFtPSF0pW0NAQEhdNVtPSF0=

>  <s_glide_docking_method>  (1) 
confgen

>  <s_i_glide_gridfile>  (1) 
gpcr_drd2_6luq_protein_autoprepared_prepared

>  <s_lp_Force_Field>  (1) 
S-OPLS

>  <s_lp_Variant>  (1) 
DiffSBDD_64_num_sample_100-1

>  <s_m_source_file>  (1) 
generated__ligand_DiffSBDD_2026-05-06_prepared.sdf

>  <GenAI_Model>  (1) 
DiffSBDD

>  <Protein>  (1) 
generic_title2

$$$$
DiffSBDD_92_num_sample_100
     RDKit          3D

  0  0  0  0  0  0  0  0  0  0999 V3000
M  V30 BEGIN CTAB
M  V30 COUNTS 66 68 0 0 1
M  V30 BEGIN ATOM
M  V30 1 F 13.459133 3.160571 -18.646858 0
M  V30 2 C 9.145951 3.552314 -17.880631 0 CFG=1
M  V30 3 C 7.085706 -2.372877 -21.898492 0
M  V30 4 C 14.472921 6.669691 -18.130368 0
M  V30 5 S 9.755621 0.927200 -19.409084 0
M  V30 6 F 7.270067 0.329819 -21.270126 0
M  V30 7 C 14.232034 4.268343 -18.551827 0
M  V30 8 C 8.927046 -1.658187 -17.227011 0
M  V30 9 C 12.134503 5.621089 -17.991543 0 CFG=2
M  V30 10 C 5.485509 -2.673669 -20.025434 0
M  V30 11 S 8.938073 4.397743 -16.291678 0
M  V30 12 C 7.732323 -1.334414 -18.156431 0 CFG=1
M  V30 13 C 8.406951 1.245229 -18.446676 0
M  V30 14 N 8.193918 2.440057 -17.817562 0
M  V30 15 C 6.645055 0.454323 -16.775074 0
M  V30 16 C 15.619795 4.172861 -18.771356 0
M  V30 17 C 6.098692 0.305465 -19.215561 0 CFG=1
M  V30 18 C 10.455065 5.369264 -16.018830 0
M  V30 19 C 15.860757 6.563648 -18.350196 0
M  V30 20 C 9.842580 5.650634 -19.248108 0
M  V30 21 C 13.648398 5.517952 -18.231668 0
M  V30 22 C 6.330375 -0.337752 -20.602090 0 CFG=2
M  V30 23 C 7.274795 0.182781 -18.181745 0 CFG=2
M  V30 24 C 16.432708 5.318101 -18.670487 0
M  V30 25 O 13.930961 7.884324 -17.819621 0
M  V30 26 F 16.646021 7.663253 -18.252788 0
M  V30 27 C 11.747784 4.871905 -16.691667 0
M  V30 28 C 6.698386 -1.840275 -20.502630 0
M  V30 29 C 8.860247 4.476982 -19.080819 0
M  V30 30 C 11.332004 5.243118 -19.263261 0
M  V30 31 O 5.609607 1.629282 -19.366046 0
M  V30 32 C 7.895807 -2.022329 -19.539974 0
M  V30 33 H 10.160223 3.169700 -17.914572 0
M  V30 34 H 6.270995 -2.243735 -22.612265 0
M  V30 35 H 7.957810 -1.856827 -22.301928 0
M  V30 36 H 7.327797 -3.435813 -21.865420 0
M  V30 37 H 9.885710 -1.321791 -17.614172 0
M  V30 38 H 8.803686 -1.230701 -16.233508 0
M  V30 39 H 9.016000 -2.736163 -17.091577 0
M  V30 40 H 11.901136 6.669090 -17.815091 0
M  V30 41 H 4.634830 -2.543799 -20.694851 0
M  V30 42 H 5.721237 -3.738260 -20.007451 0
M  V30 43 H 5.149144 -2.411440 -19.023429 0
M  V30 44 H 6.909273 -1.881930 -17.696956 0
M  V30 45 H 7.356853 2.553714 -17.265598 0
M  V30 46 H 5.957477 -0.336213 -16.472047 0
M  V30 47 H 7.399255 0.531197 -15.991080 0
M  V30 48 H 6.057124 1.372102 -16.750111 0
M  V30 49 H 16.060857 3.218183 -19.017734 0
M  V30 50 H 5.244470 -0.215253 -18.783461 0
M  V30 51 H 10.603902 5.378740 -14.938753 0
M  V30 52 H 10.265475 6.401383 -16.291671 0
M  V30 53 H 9.608634 6.133712 -20.197530 0
M  V30 54 H 9.653434 6.417074 -18.498306 0
M  V30 55 H 5.434859 -0.231262 -21.212386 0
M  V30 56 H 17.496857 5.241352 -18.839306 0
M  V30 57 H 14.558671 8.590302 -17.866074 0
M  V30 58 H 11.790172 3.788600 -16.788518 0
M  V30 59 H 12.536151 5.094138 -15.970693 0
M  V30 60 H 8.881595 3.886161 -19.996910 0
M  V30 61 H 7.844534 4.867571 -19.008588 0
M  V30 62 H 11.791071 5.777931 -20.096114 0
M  V30 63 H 11.442487 4.188480 -19.514807 0
M  V30 64 H 4.896344 1.614797 -19.986336 0
M  V30 65 H 8.805448 -1.682747 -20.028778 0
M  V30 66 H 8.060512 -3.089268 -19.382642 0
M  V30 END ATOM
M  V30 BEGIN BOND
M  V30 1 1 7 1
M  V30 2 1 11 2
M  V30 3 1 12 8
M  V30 4 2 13 5
M  V30 5 1 14 2
M  V30 6 1 14 13
M  V30 7 1 16 7
M  V30 8 1 18 11
M  V30 9 2 19 4
M  V30 10 1 21 4
M  V30 11 2 21 7
M  V30 12 1 21 9
M  V30 13 1 22 6
M  V30 14 1 22 17
M  V30 15 1 23 12
M  V30 16 1 23 13
M  V30 17 1 23 15 CFG=1
M  V30 18 1 23 17
M  V30 19 2 24 16
M  V30 20 1 24 19
M  V30 21 1 25 4
M  V30 22 1 26 19
M  V30 23 1 27 9
M  V30 24 1 27 18
M  V30 25 1 28 3
M  V30 26 1 28 10
M  V30 27 1 28 22
M  V30 28 1 29 2
M  V30 29 1 29 20
M  V30 30 1 30 9
M  V30 31 1 30 20
M  V30 32 1 31 17
M  V30 33 1 32 12
M  V30 34 1 32 28
M  V30 35 1 2 33 CFG=3
M  V30 36 1 34 3
M  V30 37 1 35 3
M  V30 38 1 36 3
M  V30 39 1 37 8
M  V30 40 1 38 8
M  V30 41 1 39 8
M  V30 42 1 9 40 CFG=1
M  V30 43 1 41 10
M  V30 44 1 42 10
M  V30 45 1 43 10
M  V30 46 1 12 44 CFG=1
M  V30 47 1 45 14
M  V30 48 1 46 15
M  V30 49 1 47 15
M  V30 50 1 48 15
M  V30 51 1 49 16
M  V30 52 1 17 50 CFG=1
M  V30 53 1 51 18
M  V30 54 1 52 18
M  V30 55 1 53 20
M  V30 56 1 54 20
M  V30 57 1 22 55 CFG=3
M  V30 58 1 56 24
M  V30 59 1 57 25
M  V30 60 1 58 27
M  V30 61 1 59 27
M  V30 62 1 60 29
M  V30 63 1 61 29
M  V30 64 1 62 30
M  V30 65 1 63 30
M  V30 66 1 64 31
M  V30 67 1 65 32
M  V30 68 1 66 32
M  V30 END BOND
M  V30 END CTAB
M  END
>  <i_epik_Tot_Q>  (1) 
0

>  <i_epik_Tot_abs_Q>  (1) 
0

>  <i_i_glide_confnum>  (1) 
363

>  <i_i_glide_lignum>  (1) 
186

>  <i_i_glide_posenum>  (1) 
147

>  <i_i_glide_rotatable_bonds>  (1) 
6

>  <i_lp_mmshare_version>  (1) 
72125

>  <i_m_source_file_index>  (1) 
93

>  <i_f3d_flags>  (1) 
0

>  <num_sample>  (1) 
100

>  <b_lp_Chiralities_Consistent>  (1) 
1

>  <r_epik_Charging_Adjusted_Penalty>  (1) 
0.13644680827592012

>  <r_epik_Ionization_Penalty>  (1) 
0.1364473086823538

>  <r_epik_Ionization_Penalty_Charging>  (1) 
0

>  <r_epik_Ionization_Penalty_Neutral>  (1) 
0.1364473086823538

>  <r_epik_State_Penalty>  (1) 
0.13644680827592012

>  <r_glide_ring_energy>  (1) 
2.2024039784510827

>  <r_i_docking_score>  (1) 
-1.7727598947558676

>  <r_i_glide_ecoul>  (1) 
-1.4129584178842183

>  <r_i_glide_eff_state_penalty>  (1) 
0.13644680827592012

>  <r_i_glide_einternal>  (1) 
1.7662718721683781

>  <r_i_glide_emodel>  (1) 
-31.290205412889769

>  <r_i_glide_emodel_strain>  (1) 
0

>  <r_i_glide_energy>  (1) 
-28.666089971414692

>  <r_i_glide_erotb>  (1) 
0.33940478494589921

>  <r_i_glide_esite>  (1) 
0

>  <r_i_glide_evdw>  (1) 
-27.253131553530473

>  <r_i_glide_gscore>  (1) 
-1.9092067030317876

>  <r_i_glide_gscore_strain>  (1) 
0

>  <r_i_glide_hbond>  (1) 
0

>  <r_i_glide_ligand_efficiency>  (1) 
-0.055398746711120862

>  <r_i_glide_ligand_efficiency_ln>  (1) 
-0.39696926404547617

>  <r_i_glide_ligand_efficiency_sa>  (1) 
-0.17588005761390621

>  <r_i_glide_lipo>  (1) 
-0.48518812099128467

>  <r_i_glide_metal>  (1) 
-0

>  <r_i_glide_rewards>  (1) 
-0.18882302662724582

>  <r_lp_Energy>  (1) 
81.464282999999995

>  <r_lp_tautomer_probability>  (1) 
0.99999999999736477

>  <s_epik_Chemistry_Notes>  (1) 
This compound contains an acetal/aminal-like group ( X-CH(R)-Y where X, Y are N, S, or O) that may be acid/base labile, releasing an aldehyde.

>  <s_epik_cmdline>  (1) 
J2VwaWtfcHl0aG9uJywgJy1waHQnLCAnMS4wJywgJy1waCcsICc3LjQnLCAnLXRuJywgJzgnLCAnLW1hJywgJzUwMCcsICctaW1hZScsICc8aW5maWxlLm1hZT4nLCAnLW9tYWUnLCAnPG91dGZpbGUubWFlPic=

>  <s_epik_input>  (1) 
W09IXWMxYyhGKVtjSF1bY0hdYyhGKWMxW0NAQEhdKFtDSDJdW0NIMl1bQ0gyXTIpW0NIMl1bQ0gyXVNbQ0BIXTJbTkhdQyg9UylbQ0BdMyhbQ0gzXSlbQ0BIXShbQ0gzXSlbQ0gyXUMoW0NIM10pKFtDSDNdKVtDQEhdKEYpW0NAQEhdM1tPSF0=

>  <s_glide_docking_method>  (1) 
confgen

>  <s_i_glide_gridfile>  (1) 
gpcr_drd2_6luq_protein_autoprepared_prepared

>  <s_lp_Force_Field>  (1) 
S-OPLS

>  <s_lp_Variant>  (1) 
DiffSBDD_92_num_sample_100-1

>  <s_m_source_file>  (1) 
generated__ligand_DiffSBDD_2026-05-06_prepared.sdf

>  <GenAI_Model>  (1) 
DiffSBDD

>  <Protein>  (1) 
generic_title2

$$$$
DiffSBDD_67_num_sample_100
     RDKit          3D

  0  0  0  0  0  0  0  0  0  0999 V3000
M  V30 BEGIN CTAB
M  V30 COUNTS 79 83 0 0 1
M  V30 BEGIN ATOM
M  V30 1 C 9.231994 7.863266 -10.415512 0 CFG=2
M  V30 2 C 9.277598 6.089768 -8.409477 0 CFG=1
M  V30 3 C 9.249707 4.569307 -8.519313 0
M  V30 4 C 9.958872 6.533001 -7.086218 0 CFG=1
M  V30 5 C 9.108789 4.946496 -13.551862 0
M  V30 6 C 7.734558 6.554231 -12.022574 0
M  V30 7 C 9.357510 1.147218 -17.824151 0
M  V30 8 C 6.982005 0.622533 -17.611342 0
M  V30 9 C 11.922163 8.155910 -7.636064 0 CFG=2
M  V30 10 C 7.847023 3.609036 -19.158853 0
M  V30 11 C 8.501420 5.444328 -14.878525 0
M  V30 12 C 9.662210 -0.224048 -17.804673 0
M  V30 13 C 8.515069 3.864185 -16.687410 0
M  V30 14 O 9.011117 3.850148 -19.553456 0 CHG=-1
M  V30 15 F 6.295206 -1.665498 -17.491415 0
M  V30 16 C 6.269598 4.056180 -13.593112 0
M  V30 17 O 6.799229 3.771023 -19.823368 0
M  V30 18 C 11.487523 6.740051 -7.177296 0
M  V30 19 C 10.817788 8.793358 -8.465454 0 CFG=2
M  V30 20 C 8.017256 1.575590 -17.723785 0
M  V30 21 C 9.615339 8.969286 -7.472165 0
M  V30 22 N 7.060308 4.121420 -12.334375 0 CFG=1 CHG=1
M  V30 23 C 7.062282 3.444287 -14.768892 0
M  V30 24 N 7.707227 4.457180 -15.613329 0
M  V30 25 C 9.314326 7.791163 -6.551664 0
M  V30 26 C 8.190138 5.101588 -12.322243 0 CFG=1
M  V30 27 C 8.262174 8.935342 -12.465682 0
M  V30 28 C 7.688071 3.063615 -17.728743 0 CFG=2
M  V30 29 O 13.113672 8.169272 -8.393786 0
M  V30 30 C 10.578701 7.998090 -9.763792 0 CFG=1
M  V30 31 C 9.863319 6.679444 -9.690003 0 CFG=2
M  V30 32 O 10.958195 -0.630327 -17.891447 0
M  V30 33 C 8.629258 -1.175170 -17.689618 0
M  V30 34 C 6.183567 4.198796 -11.136165 0
M  V30 35 C 7.288778 -0.751521 -17.596180 0
M  V30 36 C 8.836378 7.644133 -11.879176 0 CFG=1
M  V30 37 H 8.634842 8.624001 -9.948940 0
M  V30 38 H 8.234840 6.384466 -8.362092 0
M  V30 39 H 10.254456 4.163250 -8.490660 0
M  V30 40 H 8.656326 4.132832 -7.722612 0
M  V30 41 H 8.805185 4.249288 -9.452141 0
M  V30 42 H 9.768138 5.769220 -6.336044 0
M  V30 43 H 9.434942 3.913154 -13.624212 0
M  V30 44 H 10.033283 5.495919 -13.382557 0
M  V30 45 H 7.009134 6.839647 -12.783900 0
M  V30 46 H 7.164880 6.569413 -11.095689 0
M  V30 47 H 10.150506 1.874963 -17.911109 0
M  V30 48 H 5.953926 0.945808 -17.537500 0
M  V30 49 H 11.562173 0.091067 -17.982895 0
M  V30 50 H 12.104941 8.771059 -6.753696 0
M  V30 51 H 9.312925 5.799376 -15.513264 0
M  V30 52 H 7.877553 6.320488 -14.710912 0
M  V30 53 H 9.319933 3.262466 -16.271984 0
M  V30 54 H 9.014231 4.680336 -17.211005 0
M  V30 55 H 5.418314 3.397778 -13.411224 0
M  V30 56 H 5.841183 5.026338 -13.848810 0
M  V30 57 H 11.956465 6.484681 -6.228761 0
M  V30 58 H 11.834808 6.025913 -7.889870 0
M  V30 59 H 11.166757 9.769276 -8.796869 0
M  V30 60 H 8.705429 9.322640 -7.955562 0
M  V30 61 H 9.895276 9.741044 -6.750331 0
M  V30 62 H 6.371500 2.874508 -15.385737 0
M  V30 63 H 7.782535 2.707693 -14.413871 0
M  V30 64 H 8.240027 7.670736 -6.409024 0
M  V30 65 H 9.726743 7.987037 -5.561198 0
M  V30 66 H 8.805020 4.779390 -11.491793 0
M  V30 67 H 7.459321 9.313746 -11.831163 0
M  V30 68 H 9.034770 9.694196 -12.565965 0
M  V30 69 H 7.834823 8.774145 -13.456850 0
M  V30 70 H 6.634889 3.175725 -17.502906 0
M  V30 71 H 13.277232 9.048091 -8.706303 0
M  V30 72 H 11.416956 8.041457 -10.455391 0
M  V30 73 H 10.234823 5.920781 -10.365143 0
M  V30 74 H 8.863732 -2.229455 -17.673029 0
M  V30 75 H 5.501263 5.048455 -11.188512 0
M  V30 76 H 5.575699 3.302850 -11.039662 0
M  V30 77 H 6.756210 4.289569 -10.215581 0
M  V30 78 H 9.728883 7.390191 -12.444505 0
M  V30 79 H 7.510991 3.219363 -12.268083 0
M  V30 END ATOM
M  V30 BEGIN BOND
M  V30 1 1 3 2
M  V30 2 1 4 2
M  V30 3 1 11 5
M  V30 4 2 12 7
M  V30 5 1 14 10
M  V30 6 2 17 10
M  V30 7 1 18 4
M  V30 8 1 18 9
M  V30 9 1 19 9
M  V30 10 1 20 7
M  V30 11 2 20 8
M  V30 12 1 21 19
M  V30 13 1 22 16
M  V30 14 1 23 16
M  V30 15 1 24 11
M  V30 16 1 24 13
M  V30 17 1 24 23
M  V30 18 1 25 4
M  V30 19 1 25 21
M  V30 20 1 26 5
M  V30 21 1 26 6
M  V30 22 1 26 22
M  V30 23 1 28 10
M  V30 24 1 28 13
M  V30 25 1 28 20
M  V30 26 1 29 9
M  V30 27 1 30 1
M  V30 28 1 30 19
M  V30 29 1 31 1
M  V30 30 1 31 2
M  V30 31 1 31 30
M  V30 32 1 32 12
M  V30 33 1 33 12
M  V30 34 1 34 22
M  V30 35 1 35 8
M  V30 36 1 35 15
M  V30 37 2 35 33
M  V30 38 1 36 1
M  V30 39 1 36 6
M  V30 40 1 36 27
M  V30 41 1 1 37 CFG=1
M  V30 42 1 2 38 CFG=1
M  V30 43 1 39 3
M  V30 44 1 40 3
M  V30 45 1 41 3
M  V30 46 1 4 42 CFG=1
M  V30 47 1 43 5
M  V30 48 1 44 5
M  V30 49 1 45 6
M  V30 50 1 46 6
M  V30 51 1 47 7
M  V30 52 1 48 8
M  V30 53 1 49 32
M  V30 54 1 9 50 CFG=1
M  V30 55 1 51 11
M  V30 56 1 52 11
M  V30 57 1 53 13
M  V30 58 1 54 13
M  V30 59 1 55 16
M  V30 60 1 56 16
M  V30 61 1 57 18
M  V30 62 1 58 18
M  V30 63 1 19 59 CFG=3
M  V30 64 1 60 21
M  V30 65 1 61 21
M  V30 66 1 62 23
M  V30 67 1 63 23
M  V30 68 1 64 25
M  V30 69 1 65 25
M  V30 70 1 26 66 CFG=1
M  V30 71 1 67 27
M  V30 72 1 68 27
M  V30 73 1 69 27
M  V30 74 1 28 70 CFG=1
M  V30 75 1 71 29
M  V30 76 1 30 72 CFG=3
M  V30 77 1 31 73 CFG=3
M  V30 78 1 74 33
M  V30 79 1 75 34
M  V30 80 1 76 34
M  V30 81 1 77 34
M  V30 82 1 36 78 CFG=3
M  V30 83 1 22 79 CFG=1
M  V30 END BOND
M  V30 END CTAB
M  END
>  <i_epik_Tot_Q>  (1) 
0

>  <i_epik_Tot_abs_Q>  (1) 
2

>  <i_i_glide_confnum>  (1) 
465

>  <i_i_glide_lignum>  (1) 
135

>  <i_i_glide_posenum>  (1) 
329

>  <i_i_glide_rotatable_bonds>  (1) 
9

>  <i_lp_mmshare_version>  (1) 
72125

>  <i_m_source_file_index>  (1) 
68

>  <i_f3d_flags>  (1) 
0

>  <num_sample>  (1) 
100

>  <b_lp_Chiralities_Consistent>  (1) 
1

>  <r_epik_Charging_Adjusted_Penalty>  (1) 
1.0015811376701689

>  <r_epik_Ionization_Penalty>  (1) 
0.014205467742633596

>  <r_epik_Ionization_Penalty_Charging>  (1) 
0.0035901324651834211

>  <r_epik_Ionization_Penalty_Neutral>  (1) 
0.010615335277450176

>  <r_epik_State_Penalty>  (1) 
0.99799100520498552

>  <r_glide_ring_energy>  (1) 
2.1402700188235628

>  <r_i_docking_score>  (1) 
-1.7419958055909985

>  <r_i_glide_ecoul>  (1) 
-3.5583382711873286

>  <r_i_glide_eff_state_penalty>  (1) 
0.99799100520498552

>  <r_i_glide_einternal>  (1) 
11.953361270600613

>  <r_i_glide_emodel>  (1) 
-15.628302798482657

>  <r_i_glide_emodel_strain>  (1) 
6.9265875827165502

>  <r_i_glide_energy>  (1) 
-23.993182743106864

>  <r_i_glide_erotb>  (1) 
0.48522832276191719

>  <r_i_glide_esite>  (1) 
-0.0010879307689834511

>  <r_i_glide_evdw>  (1) 
-20.434844471919536

>  <r_i_glide_gscore>  (1) 
-2.7399868107959842

>  <r_i_glide_gscore_strain>  (1) 
0.73164689567913754

>  <r_i_glide_hbond>  (1) 
0

>  <r_i_glide_ligand_efficiency>  (1) 
-0.048388772377527735

>  <r_i_glide_ligand_efficiency_ln>  (1) 
-0.38005642149212193

>  <r_i_glide_ligand_efficiency_sa>  (1) 
-0.15977620605391848

>  <r_i_glide_lipo>  (1) 
-1.57168754459972

>  <r_i_glide_metal>  (1) 
-0

>  <r_i_glide_rewards>  (1) 
-0.82859358959425966

>  <r_lp_Energy>  (1) 
48.201639999999998

>  <s_epik_cmdline>  (1) 
J2VwaWtfcHl0aG9uJywgJy1waHQnLCAnMS4wJywgJy1waCcsICc3LjQnLCAnLXRuJywgJzgnLCAnLW1hJywgJzUwMCcsICctaW1hZScsICc8aW5maWxlLm1hZT4nLCAnLW9tYWUnLCAnPG91dGZpbGUubWFlPic=

>  <s_epik_input>  (1) 
W0NIM11bQ0BASF0oW0NAQEhdMTIpW0NAQEhdM1tDQEhdKFtDQEhdKFtDQEBIXShbQ0gyXTEpW09IXSlbQ0gyXVtDSDJdMilbQ0BIXTNbQ0BIXShbQ0gzXSlbQ0gyXVtDQEBIXTRbQ0gyXVtDSDJdTihbQ0gyXVtDSDJdTjRbQ0gzXSlbQ0gyXVtDQEBIXShDKD1PKVtPSF0pQyg9W0NIXUM1PU8pW0NIMl1DKEYpPVtDSF01

>  <s_glide_docking_method>  (1) 
confgen

>  <s_i_glide_gridfile>  (1) 
gpcr_drd2_6luq_protein_autoprepared_prepared

>  <s_lp_Force_Field>  (1) 
S-OPLS

>  <s_lp_Variant>  (1) 
DiffSBDD_67_num_sample_100-3

>  <s_m_source_file>  (1) 
generated__ligand_DiffSBDD_2026-05-06_prepared.sdf

>  <GenAI_Model>  (1) 
DiffSBDD

>  <Protein>  (1) 
generic_title2

$$$$
DiffSBDD_55_num_sample_100
     RDKit          3D

  0  0  0  0  0  0  0  0  0  0999 V3000
M  V30 BEGIN CTAB
M  V30 COUNTS 50 53 0 0 1
M  V30 BEGIN ATOM
M  V30 1 O 24.044023 -1.262846 2.492539 0
M  V30 2 C 20.622614 -4.846147 -4.408874 0
M  V30 3 C 21.470235 -5.450390 3.129454 0
M  V30 4 C 18.978348 -6.752989 1.895415 0
M  V30 5 C 22.906352 -3.653088 1.444327 0 CFG=2
M  V30 6 C 22.789564 -3.321331 2.929622 0 CFG=1
M  V30 7 S 19.034904 -6.701954 -3.220535 0
M  V30 8 C 19.816017 -6.105999 -4.745278 0
M  V30 9 C 19.936696 -4.206567 -3.211828 0
M  V30 10 C 22.439308 0.433592 2.729233 0
M  V30 11 N 21.239832 -5.636318 1.693350 0
M  V30 12 C 22.958985 -1.813487 3.239685 0 CFG=2
M  V30 13 C 21.544771 -3.976807 3.563916 0 CFG=2
M  V30 14 C 21.763425 -0.904037 2.930239 0
M  V30 15 C 23.702314 0.022650 1.984064 0
M  V30 16 C 18.964318 -4.940935 -1.015010 0
M  V30 17 C 19.830849 -5.643511 1.255500 0 CFG=1
M  V30 18 C 18.855758 -5.035833 -2.528397 0 CFG=2
M  V30 19 C 21.788570 -3.430673 0.459613 0
M  V30 20 O 20.234877 -3.077953 -2.821247 0
M  V30 21 O 21.638882 -3.924571 4.973645 0
M  V30 22 C 19.721950 -5.754256 -0.256702 0
M  V30 23 C 22.162762 -4.846575 0.858099 0 CFG=1
M  V30 24 H 21.641575 -5.106780 -4.122766 0
M  V30 25 H 20.670309 -4.157439 -5.252533 0
M  V30 26 H 22.412890 -5.934067 3.388207 0
M  V30 27 H 20.717960 -5.974305 3.715368 0
M  V30 28 H 17.982528 -6.781110 1.451299 0
M  V30 29 H 19.432015 -7.733911 1.751017 0
M  V30 30 H 18.832793 -6.600281 2.963695 0
M  V30 31 H 23.904904 -3.479661 1.047111 0
M  V30 32 H 23.656719 -3.809171 3.377504 0
M  V30 33 H 20.441966 -6.884575 -5.181656 0
M  V30 34 H 19.034690 -5.866039 -5.467377 0
M  V30 35 H 22.695123 0.877026 3.692520 0
M  V30 36 H 21.834959 1.147544 2.170081 0
M  V30 37 H 23.207422 -1.691916 4.295362 0
M  V30 38 H 20.635117 -3.456315 3.269265 0
M  V30 39 H 21.264482 -1.195277 2.008404 0
M  V30 40 H 21.020980 -0.891513 3.728818 0
M  V30 41 H 24.516837 0.735564 2.113427 0
M  V30 42 H 23.498325 -0.071353 0.916561 0
M  V30 43 H 18.389385 -4.157464 -0.543200 0
M  V30 44 H 19.383091 -4.689285 1.529544 0
M  V30 45 H 17.881870 -4.652481 -2.832694 0
M  V30 46 H 22.064495 -3.108574 -0.542130 0
M  V30 47 H 20.842729 -3.035337 0.820354 0
M  V30 48 H 22.414644 -4.392045 5.244308 0
M  V30 49 H 20.298408 -6.539301 -0.724076 0
M  V30 50 H 22.659393 -5.461327 0.109915 0
M  V30 END ATOM
M  V30 BEGIN BOND
M  V30 1 1 6 5
M  V30 2 1 8 2
M  V30 3 1 8 7
M  V30 4 1 9 2
M  V30 5 1 11 3
M  V30 6 1 12 1
M  V30 7 1 12 6
M  V30 8 1 13 3
M  V30 9 1 13 6
M  V30 10 1 14 10
M  V30 11 1 14 12
M  V30 12 1 15 1
M  V30 13 1 15 10
M  V30 14 1 17 4
M  V30 15 1 17 11
M  V30 16 1 18 7
M  V30 17 1 18 9
M  V30 18 1 18 16
M  V30 19 1 19 5
M  V30 20 2 20 9
M  V30 21 1 21 13
M  V30 22 2 22 16
M  V30 23 1 22 17
M  V30 24 1 23 5
M  V30 25 1 23 11
M  V30 26 1 23 19
M  V30 27 1 24 2
M  V30 28 1 25 2
M  V30 29 1 26 3
M  V30 30 1 27 3
M  V30 31 1 28 4
M  V30 32 1 29 4
M  V30 33 1 30 4
M  V30 34 1 5 31 CFG=3
M  V30 35 1 6 32 CFG=1
M  V30 36 1 33 8
M  V30 37 1 34 8
M  V30 38 1 35 10
M  V30 39 1 36 10
M  V30 40 1 12 37 CFG=1
M  V30 41 1 13 38 CFG=3
M  V30 42 1 39 14
M  V30 43 1 40 14
M  V30 44 1 41 15
M  V30 45 1 42 15
M  V30 46 1 43 16
M  V30 47 1 17 44 CFG=1
M  V30 48 1 18 45 CFG=3
M  V30 49 1 46 19
M  V30 50 1 47 19
M  V30 51 1 48 21
M  V30 52 1 49 22
M  V30 53 1 23 50 CFG=3
M  V30 END BOND
M  V30 END CTAB
M  END
>  <i_epik_Tot_Q>  (1) 
0

>  <i_epik_Tot_abs_Q>  (1) 
0

>  <i_i_glide_confnum>  (1) 
44

>  <i_i_glide_lignum>  (1) 
110

>  <i_i_glide_posenum>  (1) 
14

>  <i_i_glide_rotatable_bonds>  (1) 
5

>  <i_lp_mmshare_version>  (1) 
72125

>  <i_m_source_file_index>  (1) 
56

>  <i_f3d_flags>  (1) 
0

>  <num_sample>  (1) 
100

>  <b_lp_Chiralities_Consistent>  (1) 
1

>  <r_epik_Charging_Adjusted_Penalty>  (1) 
1.1351003249830234

>  <r_epik_Ionization_Penalty>  (1) 
1.13510036387319

>  <r_epik_Ionization_Penalty_Charging>  (1) 
0

>  <r_epik_Ionization_Penalty_Neutral>  (1) 
1.13510036387319

>  <r_epik_State_Penalty>  (1) 
1.1351003249830234

>  <r_glide_ring_energy>  (1) 
0.48034924446920019

>  <r_i_docking_score>  (1) 
-1.6378882858150059

>  <r_i_glide_ecoul>  (1) 
-0.1241825549557688

>  <r_i_glide_eff_state_penalty>  (1) 
1.1351003249830234

>  <r_i_glide_einternal>  (1) 
4.7137580658815628

>  <r_i_glide_emodel>  (1) 
-19.044964358041756

>  <r_i_glide_emodel_strain>  (1) 
0.035480701053842267

>  <r_i_glide_energy>  (1) 
-18.074730351732967

>  <r_i_glide_erotb>  (1) 
0.4978175189556282

>  <r_i_glide_esite>  (1) 
0

>  <r_i_glide_evdw>  (1) 
-17.950547796777197

>  <r_i_glide_gscore>  (1) 
-2.7729886107980293

>  <r_i_glide_gscore_strain>  (1) 
0

>  <r_i_glide_hbond>  (1) 
0

>  <r_i_glide_ligand_efficiency>  (1) 
-0.071212534165869826

>  <r_i_glide_ligand_efficiency_ln>  (1) 
-0.39605623905993309

>  <r_i_glide_ligand_efficiency_sa>  (1) 
-0.20251897446586864

>  <r_i_glide_lipo>  (1) 
-0.99093947112890568

>  <r_i_glide_metal>  (1) 
-0

>  <r_i_glide_rewards>  (1) 
-1.3637118855425265

>  <r_lp_Energy>  (1) 
17.093762999999999

>  <r_lp_tautomer_probability>  (1) 
0.99995000000000001

>  <s_epik_cmdline>  (1) 
J2VwaWtfcHl0aG9uJywgJy1waHQnLCAnMS4wJywgJy1waCcsICc3LjQnLCAnLXRuJywgJzgnLCAnLW1hJywgJzUwMCcsICctaW1hZScsICc8aW5maWxlLm1hZT4nLCAnLW9tYWUnLCAnPG91dGZpbGUubWFlPic=

>  <s_epik_input>  (1) 
W0NIMl0xW0NIMl1bQ0gyXU9bQ0BASF0xW0NASF0yW0NASF0oW09IXSlbQ0gyXU4oW0NASF0oW0NASF0yMylbQ0gyXTMpW0NASF0oW0NIM10pXFtDSF09W0NIXVxbQ0BASF00U1tDSDJdW0NIMl1DND1P

>  <s_glide_docking_method>  (1) 
confgen

>  <s_i_glide_gridfile>  (1) 
gpcr_drd2_6luq_protein_autoprepared_prepared

>  <s_lp_Force_Field>  (1) 
S-OPLS

>  <s_lp_Variant>  (1) 
DiffSBDD_55_num_sample_100-11

>  <s_m_source_file>  (1) 
generated__ligand_DiffSBDD_2026-05-06_prepared.sdf

>  <GenAI_Model>  (1) 
DiffSBDD

>  <Protein>  (1) 
generic_title2

$$$$
DiffSBDD_55_num_sample_100
     RDKit          3D

  0  0  0  0  0  0  0  0  0  0999 V3000
M  V30 BEGIN CTAB
M  V30 COUNTS 50 53 0 0 1
M  V30 BEGIN ATOM
M  V30 1 O 24.044957 -1.267120 2.480015 0
M  V30 2 C 20.619971 -4.845059 -4.424329 0
M  V30 3 C 21.472633 -5.452170 3.119181 0
M  V30 4 C 18.977915 -6.749220 1.879106 0
M  V30 5 C 22.913985 -3.657852 1.439402 0 CFG=2
M  V30 6 C 22.792900 -3.326660 2.924672 0 CFG=1
M  V30 7 S 19.034874 -6.703576 -3.234007 0
M  V30 8 C 19.815790 -6.107082 -4.758723 0
M  V30 9 C 19.936105 -4.207946 -3.224436 0
M  V30 10 C 22.442753 0.428395 2.742859 0
M  V30 11 N 21.242921 -5.637294 1.682649 0
M  V30 12 C 22.967801 -1.820273 3.236885 0 CFG=2
M  V30 13 C 21.543389 -3.978446 3.554020 0 CFG=2
M  V30 14 C 21.769475 -0.910798 2.939930 0
M  V30 15 C 23.702672 0.024532 1.988741 0
M  V30 16 C 18.962549 -4.944014 -1.027942 0
M  V30 17 C 19.834714 -5.641372 1.241873 0 CFG=1
M  V30 18 C 18.855786 -5.037808 -2.541589 0 CFG=2
M  V30 19 C 21.799190 -3.430625 0.452411 0
M  V30 20 O 20.234871 -3.080270 -2.831766 0
M  V30 21 O 21.636909 -3.926497 4.963612 0
M  V30 22 C 19.727798 -5.750943 -0.270332 0
M  V30 23 C 22.168489 -4.848330 0.849661 0 CFG=1
M  V30 24 H 21.641906 -5.101295 -4.144644 0
M  V30 25 H 20.659498 -4.156189 -5.268273 0
M  V30 26 H 22.417772 -5.931366 3.378914 0
M  V30 27 H 20.723160 -5.982173 3.703153 0
M  V30 28 H 17.982509 -6.772306 1.433557 0
M  V30 29 H 19.428128 -7.731469 1.731391 0
M  V30 30 H 18.832292 -6.598786 2.947970 0
M  V30 31 H 23.914181 -3.487480 1.045448 0
M  V30 32 H 23.655156 -3.818892 3.377828 0
M  V30 33 H 20.442559 -6.884200 -5.196009 0
M  V30 34 H 19.034958 -5.868883 -5.481512 0
M  V30 35 H 22.702704 0.865833 3.707616 0
M  V30 36 H 21.834750 1.144866 2.191263 0
M  V30 37 H 23.226574 -1.701382 4.290472 0
M  V30 38 H 20.634853 -3.458087 3.254877 0
M  V30 39 H 21.264902 -1.197422 2.019636 0
M  V30 40 H 21.032838 -0.904190 3.743776 0
M  V30 41 H 24.518401 0.734614 2.124933 0
M  V30 42 H 23.495900 -0.056530 0.920732 0
M  V30 43 H 18.379512 -4.167082 -0.555520 0
M  V30 44 H 19.388873 -4.686228 1.514957 0
M  V30 45 H 17.883063 -4.651563 -2.846451 0
M  V30 46 H 22.077337 -3.109478 -0.549039 0
M  V30 47 H 20.854858 -3.031199 0.812515 0
M  V30 48 H 20.865275 -4.328843 5.332489 0
M  V30 49 H 20.312201 -6.529714 -0.738519 0
M  V30 50 H 22.665939 -5.463197 0.101958 0
M  V30 END ATOM
M  V30 BEGIN BOND
M  V30 1 1 6 5
M  V30 2 1 8 2
M  V30 3 1 8 7
M  V30 4 1 9 2
M  V30 5 1 11 3
M  V30 6 1 12 1
M  V30 7 1 12 6
M  V30 8 1 13 3
M  V30 9 1 13 6
M  V30 10 1 14 10
M  V30 11 1 14 12
M  V30 12 1 15 1
M  V30 13 1 15 10
M  V30 14 1 17 4
M  V30 15 1 17 11
M  V30 16 1 18 7
M  V30 17 1 18 9
M  V30 18 1 18 16
M  V30 19 1 19 5
M  V30 20 2 20 9
M  V30 21 1 21 13
M  V30 22 2 22 16
M  V30 23 1 22 17
M  V30 24 1 23 5
M  V30 25 1 23 11
M  V30 26 1 23 19
M  V30 27 1 24 2
M  V30 28 1 25 2
M  V30 29 1 26 3
M  V30 30 1 27 3
M  V30 31 1 28 4
M  V30 32 1 29 4
M  V30 33 1 30 4
M  V30 34 1 5 31 CFG=3
M  V30 35 1 6 32 CFG=1
M  V30 36 1 33 8
M  V30 37 1 34 8
M  V30 38 1 35 10
M  V30 39 1 36 10
M  V30 40 1 12 37 CFG=1
M  V30 41 1 13 38 CFG=3
M  V30 42 1 39 14
M  V30 43 1 40 14
M  V30 44 1 41 15
M  V30 45 1 42 15
M  V30 46 1 43 16
M  V30 47 1 17 44 CFG=1
M  V30 48 1 18 45 CFG=3
M  V30 49 1 46 19
M  V30 50 1 47 19
M  V30 51 1 48 21
M  V30 52 1 49 22
M  V30 53 1 23 50 CFG=3
M  V30 END BOND
M  V30 END CTAB
M  END
>  <i_epik_Tot_Q>  (1) 
0

>  <i_epik_Tot_abs_Q>  (1) 
0

>  <i_i_glide_confnum>  (1) 
44

>  <i_i_glide_lignum>  (1) 
110

>  <i_i_glide_posenum>  (1) 
14

>  <i_i_glide_rotatable_bonds>  (1) 
5

>  <i_lp_mmshare_version>  (1) 
72125

>  <i_m_source_file_index>  (1) 
56

>  <i_f3d_flags>  (1) 
0

>  <num_sample>  (1) 
100

>  <b_lp_Chiralities_Consistent>  (1) 
1

>  <r_epik_Charging_Adjusted_Penalty>  (1) 
1.1351003249830234

>  <r_epik_Ionization_Penalty>  (1) 
1.13510036387319

>  <r_epik_Ionization_Penalty_Charging>  (1) 
0

>  <r_epik_Ionization_Penalty_Neutral>  (1) 
1.13510036387319

>  <r_epik_State_Penalty>  (1) 
1.1351003249830234

>  <r_glide_ring_energy>  (1) 
0.48034924446920019

>  <r_i_docking_score>  (1) 
-1.6253413334894564

>  <r_i_glide_ecoul>  (1) 
-0.064194810138921532

>  <r_i_glide_eff_state_penalty>  (1) 
1.1351003249830234

>  <r_i_glide_einternal>  (1) 
5.0312710736705109

>  <r_i_glide_emodel>  (1) 
-18.780465199114058

>  <r_i_glide_emodel_strain>  (1) 
0.050488357712325183

>  <r_i_glide_energy>  (1) 
-17.999210094300718

>  <r_i_glide_erotb>  (1) 
0.4978175189556282

>  <r_i_glide_esite>  (1) 
0

>  <r_i_glide_evdw>  (1) 
-17.935015284161796

>  <r_i_glide_gscore>  (1) 
-2.7604416584724798

>  <r_i_glide_gscore_strain>  (1) 
0

>  <r_i_glide_hbond>  (1) 
0

>  <r_i_glide_ligand_efficiency>  (1) 
-0.070667014499541589

>  <r_i_glide_ligand_efficiency_ln>  (1) 
-0.39302227221814162

>  <r_i_glide_ligand_efficiency_sa>  (1) 
-0.20096758909993812

>  <r_i_glide_lipo>  (1) 
-0.98803388567799399

>  <r_i_glide_metal>  (1) 
-0

>  <r_i_glide_rewards>  (1) 
-1.3638453060211861

>  <r_lp_Energy>  (1) 
17.093762999999999

>  <r_lp_tautomer_probability>  (1) 
0.99995000000000001

>  <s_epik_cmdline>  (1) 
J2VwaWtfcHl0aG9uJywgJy1waHQnLCAnMS4wJywgJy1waCcsICc3LjQnLCAnLXRuJywgJzgnLCAnLW1hJywgJzUwMCcsICctaW1hZScsICc8aW5maWxlLm1hZT4nLCAnLW9tYWUnLCAnPG91dGZpbGUubWFlPic=

>  <s_epik_input>  (1) 
W0NIMl0xW0NIMl1bQ0gyXU9bQ0BASF0xW0NASF0yW0NASF0oW09IXSlbQ0gyXU4oW0NASF0oW0NASF0yMylbQ0gyXTMpW0NASF0oW0NIM10pXFtDSF09W0NIXVxbQ0BASF00U1tDSDJdW0NIMl1DND1P

>  <s_glide_docking_method>  (1) 
confgen

>  <s_i_glide_gridfile>  (1) 
gpcr_drd2_6luq_protein_autoprepared_prepared

>  <s_lp_Force_Field>  (1) 
S-OPLS

>  <s_lp_Variant>  (1) 
DiffSBDD_55_num_sample_100-11

>  <s_m_source_file>  (1) 
generated__ligand_DiffSBDD_2026-05-06_prepared.sdf

>  <GenAI_Model>  (1) 
DiffSBDD

>  <Protein>  (1) 
generic_title2

$$$$
DiffSBDD_5_num_sample_100
     RDKit          3D

  0  0  0  0  0  0  0  0  0  0999 V3000
M  V30 BEGIN CTAB
M  V30 COUNTS 68 72 0 0 1
M  V30 BEGIN ATOM
M  V30 1 N 15.430651 0.627070 -20.906168 0
M  V30 2 C 16.382785 -0.445589 -21.230556 0
M  V30 3 C 18.435950 7.509984 -21.113440 0
M  V30 4 C 13.377350 -1.550697 -22.189242 0
M  V30 5 C 19.147763 9.032752 -19.223122 0 CFG=2
M  V30 6 C 14.997948 3.638499 -19.230906 0
M  V30 7 C 14.783096 3.306389 -16.609968 0
M  V30 8 C 15.058955 7.129845 -18.446956 0
M  V30 9 C 15.803049 -1.848952 -21.463649 0
M  V30 10 O 13.291674 0.752603 -17.729945 0
M  V30 11 C 13.485787 1.949471 -18.459174 0 CFG=2
M  V30 12 C 18.514622 9.652367 -17.960638 0
M  V30 13 C 18.719769 7.585214 -19.588944 0 CFG=2
M  V30 14 N 13.841019 4.399807 -16.291643 0
M  V30 15 C 14.065738 0.316545 -20.518980 0 CFG=1
M  V30 16 C 17.608460 6.156611 -17.746539 0
M  V30 17 O 21.037872 7.737109 -19.725782 0
M  V30 18 C 20.039731 6.812716 -19.337260 0 CFG=2
M  V30 19 C 13.591123 1.743231 -19.999625 0 CFG=2
M  V30 20 C 16.468271 5.708356 -17.050519 0
M  V30 21 C 16.196010 7.578461 -19.141271 0
M  V30 22 C 15.179349 6.173602 -17.415310 0
M  V30 23 C 14.763653 2.697078 -18.041783 0 CFG=1
M  V30 24 C 20.680681 8.970367 -19.125372 0
M  V30 25 C 13.920461 5.706373 -16.690381 0
M  V30 26 C 17.477218 7.088657 -18.805566 0
M  V30 27 C 15.763056 1.899344 -20.898625 0
M  V30 28 F 20.090631 5.638650 -19.967412 0
M  V30 29 C 14.798250 -1.926555 -22.619117 0
M  V30 30 O 12.997938 6.496373 -16.504454 0
M  V30 31 O 16.876365 2.333047 -21.194919 0
M  V30 32 C 14.643107 2.809541 -20.465918 0 CFG=2
M  V30 33 C 13.211877 -0.093078 -21.742724 0
M  V30 34 H 16.942916 -0.153501 -22.120878 0
M  V30 35 H 17.110236 -0.500774 -20.418934 0
M  V30 36 H 19.319715 7.768424 -21.698416 0
M  V30 37 H 18.135853 6.504001 -21.409469 0
M  V30 38 H 17.648004 8.191729 -21.430382 0
M  V30 39 H 12.697008 -1.740681 -23.020030 0
M  V30 40 H 13.055402 -2.213001 -21.387739 0
M  V30 41 H 18.891479 9.696871 -20.049997 0
M  V30 42 H 14.307590 4.478583 -19.204812 0
M  V30 43 H 16.014346 4.032559 -19.263414 0
M  V30 44 H 14.386416 2.509389 -15.981458 0
M  V30 45 H 15.774201 3.335957 -16.183244 0
M  V30 46 H 14.083544 7.510194 -18.716539 0
M  V30 47 H 16.635249 -2.519543 -21.681366 0
M  V30 48 H 15.358579 -2.230565 -20.547075 0
M  V30 49 H 13.074336 0.969319 -16.834744 0
M  V30 50 H 12.629232 2.596126 -18.261292 0
M  V30 51 H 18.635053 9.007144 -17.091663 0
M  V30 52 H 18.971735 10.614335 -17.727398 0
M  V30 53 H 17.447666 9.829728 -18.092962 0
M  V30 54 H 13.006429 4.130187 -15.787020 0
M  V30 55 H 14.032076 -0.449982 -19.745408 0
M  V30 56 H 18.576688 5.786826 -17.459494 0
M  V30 57 H 20.233122 6.600074 -18.291681 0
M  V30 58 H 12.616515 1.985219 -20.425634 0
M  V30 59 H 16.593500 5.036059 -16.231492 0
M  V30 60 H 16.084036 8.301073 -19.934572 0
M  V30 61 H 15.565302 1.957661 -18.057349 0
M  V30 62 H 21.165306 9.806888 -19.629416 0
M  V30 63 H 21.014727 8.969304 -18.086910 0
M  V30 64 H 15.126873 -1.310833 -23.457473 0
M  V30 65 H 14.777043 -2.952203 -22.989099 0
M  V30 66 H 14.304499 3.413565 -21.308299 0
M  V30 67 H 13.407817 0.576198 -22.582031 0
M  V30 68 H 12.157871 0.041404 -21.496294 0
M  V30 END ATOM
M  V30 BEGIN BOND
M  V30 1 1 2 1
M  V30 2 1 9 2
M  V30 3 1 11 10
M  V30 4 1 12 5
M  V30 5 1 13 3 CFG=3
M  V30 6 1 13 5
M  V30 7 1 14 7
M  V30 8 1 15 1
M  V30 9 1 18 13
M  V30 10 1 18 17
M  V30 11 1 19 11
M  V30 12 1 19 15
M  V30 13 1 20 16
M  V30 14 2 21 8
M  V30 15 1 22 8
M  V30 16 2 22 20
M  V30 17 1 23 6
M  V30 18 1 23 7
M  V30 19 1 23 11
M  V30 20 1 24 5
M  V30 21 1 24 17
M  V30 22 1 25 14
M  V30 23 1 25 22
M  V30 24 1 26 13
M  V30 25 2 26 16
M  V30 26 1 26 21
M  V30 27 1 27 1
M  V30 28 1 28 18
M  V30 29 1 29 4
M  V30 30 1 29 9
M  V30 31 2 30 25
M  V30 32 2 31 27
M  V30 33 1 32 6
M  V30 34 1 32 19
M  V30 35 1 32 27
M  V30 36 1 33 4
M  V30 37 1 33 15
M  V30 38 1 34 2
M  V30 39 1 35 2
M  V30 40 1 36 3
M  V30 41 1 37 3
M  V30 42 1 38 3
M  V30 43 1 39 4
M  V30 44 1 40 4
M  V30 45 1 5 41 CFG=3
M  V30 46 1 42 6
M  V30 47 1 43 6
M  V30 48 1 44 7
M  V30 49 1 45 7
M  V30 50 1 46 8
M  V30 51 1 47 9
M  V30 52 1 48 9
M  V30 53 1 49 10
M  V30 54 1 11 50 CFG=3
M  V30 55 1 51 12
M  V30 56 1 52 12
M  V30 57 1 53 12
M  V30 58 1 54 14
M  V30 59 1 15 55 CFG=1
M  V30 60 1 56 16
M  V30 61 1 18 57 CFG=1
M  V30 62 1 19 58 CFG=3
M  V30 63 1 59 20
M  V30 64 1 60 21
M  V30 65 1 23 61 CFG=1
M  V30 66 1 62 24
M  V30 67 1 63 24
M  V30 68 1 64 29
M  V30 69 1 65 29
M  V30 70 1 32 66 CFG=3
M  V30 71 1 67 33
M  V30 72 1 68 33
M  V30 END BOND
M  V30 END CTAB
M  END
>  <i_epik_Tot_Q>  (1) 
0

>  <i_epik_Tot_abs_Q>  (1) 
0

>  <i_i_glide_confnum>  (1) 
49

>  <i_i_glide_lignum>  (1) 
8

>  <i_i_glide_posenum>  (1) 
34

>  <i_i_glide_rotatable_bonds>  (1) 
6

>  <i_lp_mmshare_version>  (1) 
72125

>  <i_m_source_file_index>  (1) 
6

>  <i_f3d_flags>  (1) 
0

>  <num_sample>  (1) 
100

>  <b_lp_Chiralities_Consistent>  (1) 
1

>  <r_epik_Charging_Adjusted_Penalty>  (1) 
0

>  <r_epik_Ionization_Penalty>  (1) 
1.9291304558021744e-07

>  <r_epik_Ionization_Penalty_Charging>  (1) 
0

>  <r_epik_Ionization_Penalty_Neutral>  (1) 
1.9291304558021744e-07

>  <r_epik_State_Penalty>  (1) 
-0

>  <r_glide_ring_energy>  (1) 
0.80861422864903076

>  <r_i_docking_score>  (1) 
-1.6110586744281254

>  <r_i_glide_ecoul>  (1) 
-0.91470097960993058

>  <r_i_glide_eff_state_penalty>  (1) 
-0

>  <r_i_glide_einternal>  (1) 
9.9859072500129571

>  <r_i_glide_emodel>  (1) 
-25.448718158622203

>  <r_i_glide_emodel_strain>  (1) 
0.72151027475587171

>  <r_i_glide_energy>  (1) 
-28.531874133323221

>  <r_i_glide_erotb>  (1) 
0.47823198043206561

>  <r_i_glide_esite>  (1) 
0

>  <r_i_glide_evdw>  (1) 
-27.617173153713292

>  <r_i_glide_gscore>  (1) 
-1.6110586744281254

>  <r_i_glide_gscore_strain>  (1) 
0

>  <r_i_glide_hbond>  (1) 
-0.12514452024195749

>  <r_i_glide_ligand_efficiency>  (1) 
-0.048819959831155314

>  <r_i_glide_ligand_efficiency_ln>  (1) 
-0.35829110757743254

>  <r_i_glide_ligand_efficiency_sa>  (1) 
-0.15659169714744794

>  <r_i_glide_lipo>  (1) 
-1.3254559982233132

>  <r_i_glide_metal>  (1) 
-0

>  <r_i_glide_rewards>  (1) 
0.87937366823223395

>  <r_lp_Energy>  (1) 
32.426643999999996

>  <r_lp_tautomer_probability>  (1) 
1

>  <s_epik_cmdline>  (1) 
J2VwaWtfcHl0aG9uJywgJy1waHQnLCAnMS4wJywgJy1waCcsICc3LjQnLCAnLXRuJywgJzgnLCAnLW1hJywgJzUwMCcsICctaW1hZScsICc8aW5maWxlLm1hZT4nLCAnLW9tYWUnLCAnPG91dGZpbGUubWFlPic=

>  <s_epik_input>  (1) 
W0NIMl0xW0NIMl1bQ0gyXVtDSDJdW0NIMl1bQ0BASF0oTjEyKVtDQEBIXTNbQ0BIXShDMj1PKVtDSDJdW0NASF0oW0NAQEhdM1tPSF0pW0NIMl1bTkhdQyg9TyljNFtjSF1bY0hdYyhbY0hdW2NIXTQpW0NAQF01KFtDSDNdKVtDQEBIXShbQ0gzXSlbQ0gyXU9bQ0BASF01Rg==

>  <s_glide_docking_method>  (1) 
confgen

>  <s_i_glide_gridfile>  (1) 
gpcr_drd2_6luq_protein_autoprepared_prepared

>  <s_lp_Force_Field>  (1) 
S-OPLS

>  <s_lp_Variant>  (1) 
DiffSBDD_5_num_sample_100-1

>  <s_m_source_file>  (1) 
generated__ligand_DiffSBDD_2026-05-06_prepared.sdf

>  <GenAI_Model>  (1) 
DiffSBDD

>  <Protein>  (1) 
generic_title2

$$$$
DiffSBDD_36_num_sample_100
     RDKit          3D

  0  0  0  0  0  0  0  0  0  0999 V3000
M  V30 BEGIN CTAB
M  V30 COUNTS 102 107 0 0 1
M  V30 BEGIN ATOM
M  V30 1 C 11.751476 9.356666 -8.604695 0
M  V30 2 O 7.240483 5.970546 -17.364591 0
M  V30 3 C 7.103606 4.835933 -10.896132 0
M  V30 4 C 19.061585 6.525717 -19.168055 0
M  V30 5 C 12.528664 5.960847 -19.868584 0 CFG=1
M  V30 6 O 16.715925 5.201375 -18.115818 0
M  V30 7 C 8.119947 4.275724 -14.086015 0
M  V30 8 C 9.259458 6.891557 -10.175516 0
M  V30 9 C 8.492941 6.839297 -11.509268 0 CFG=1
M  V30 10 C 8.727514 5.991207 -9.112066 0 CFG=1
M  V30 11 C 6.463300 4.158599 -18.607153 0
M  V30 12 C 10.020695 5.794373 -12.961859 0
M  V30 13 C 7.459394 5.164518 -9.442913 0
M  V30 14 C 11.021888 8.038343 -8.731643 0
M  V30 15 S 14.320652 8.051320 -19.971029 0
M  V30 16 C 11.190734 7.134917 -7.724863 0
M  V30 17 C 7.735586 7.641712 -20.748902 0
M  V30 18 C 10.701270 5.769330 -7.642172 0
M  V30 19 C 15.449882 7.183600 -17.530002 0
M  V30 20 C 6.969203 5.589215 -18.683234 0 CFG=2
M  V30 21 O 13.061353 5.197261 -17.548403 0
M  V30 22 C 13.788018 1.476652 -17.381242 0
M  V30 23 C 13.146440 7.022552 -20.762083 0
M  V30 24 C 17.889796 7.295087 -18.608398 0
M  V30 25 C 12.804301 3.803061 -17.618171 0
M  V30 26 C 9.346996 7.133059 -12.691545 0
M  V30 27 O 8.306928 8.681693 -21.550728 0
M  V30 28 C 15.015690 0.615565 -17.072259 0
M  V30 29 C 8.870917 4.773174 -12.786069 0 CFG=2
M  V30 30 C 9.433976 3.525624 -12.088427 0
M  V30 31 S 17.854698 8.965375 -18.527388 0
M  V30 32 O 8.116223 5.589067 -19.476062 0
M  V30 33 C 14.086459 2.979407 -17.412847 0
M  V30 34 C 10.064424 6.657493 -20.377493 0
M  V30 35 C 12.858836 7.160557 -22.065570 0
M  V30 36 N 7.918325 5.533343 -11.908680 0 CFG=1 CHG=1
M  V30 37 C 7.170334 4.860256 -16.467201 0 CFG=1
M  V30 38 C 13.579772 5.781921 -18.738266 0 CFG=2
M  V30 39 C 16.683135 6.433368 -18.089877 0
M  V30 40 O 7.864343 7.388036 -22.151869 0
M  V30 41 C 11.137653 6.369065 -19.313827 0
M  V30 42 O 9.430546 5.368179 -15.818060 0
M  V30 43 C 14.172854 7.170420 -18.400829 0 CFG=2
M  V30 44 C 9.663475 5.247274 -8.290712 0
M  V30 45 C 10.244045 7.802162 -9.967378 0
M  V30 46 C 8.651592 6.872371 -19.793061 0 CFG=1
M  V30 47 C 7.192579 3.634638 -17.387182 0
M  V30 48 C 8.348193 4.895600 -15.487312 0
M  V30 49 H 11.433280 10.088870 -9.348443 0
M  V30 50 H 11.620775 9.768018 -7.603280 0
M  V30 51 H 12.815598 9.175840 -8.757112 0
M  V30 52 H 7.050717 3.769941 -11.065858 0
M  V30 53 H 6.076369 5.162664 -11.061074 0
M  V30 54 H 18.739406 5.924705 -20.019090 0
M  V30 55 H 19.854921 7.195362 -19.501640 0
M  V30 56 H 12.430921 5.030116 -20.431109 0
M  V30 57 H 7.045586 4.282397 -13.898118 0
M  V30 58 H 7.684400 7.570559 -11.491632 0
M  V30 59 H 8.388567 6.669818 -8.329261 0
M  V30 60 H 5.390014 4.202412 -18.437579 0
M  V30 61 H 6.653336 3.609327 -19.530393 0
M  V30 62 H 10.775876 5.648308 -12.191631 0
M  V30 63 H 10.589005 5.767387 -13.883561 0
M  V30 64 H 7.390408 4.258882 -8.839765 0
M  V30 65 H 6.635144 5.769210 -9.091672 0
M  V30 66 H 11.834784 7.448156 -6.917183 0
M  V30 67 H 6.728037 7.871567 -20.414920 0
M  V30 68 H 11.260344 5.104788 -7.006551 0
M  V30 69 H 15.657362 8.212036 -17.245605 0
M  V30 70 H 15.202162 6.675943 -16.597369 0
M  V30 71 H 6.199738 6.236186 -19.099844 0
M  V30 72 H 13.032183 1.287871 -16.625705 0
M  V30 73 H 13.350254 1.164471 -18.330404 0
M  V30 74 H 12.102419 3.575067 -16.816320 0
M  V30 75 H 12.303091 3.532224 -18.548305 0
M  V30 76 H 10.036822 7.968444 -12.652046 0
M  V30 77 H 8.634703 7.363299 -13.491604 0
M  V30 78 H 14.729668 -0.433281 -16.996736 0
M  V30 79 H 15.767189 0.701438 -17.857150 0
M  V30 80 H 15.470796 0.901159 -16.123289 0
M  V30 81 H 10.234403 3.109505 -12.691321 0
M  V30 82 H 9.833170 3.750691 -11.097691 0
M  V30 83 H 8.698037 2.730224 -11.996724 0
M  V30 84 H 19.471261 5.863528 -18.406222 0
M  V30 85 H 14.803868 3.178516 -18.207338 0
M  V30 86 H 14.561258 3.286062 -16.479329 0
M  V30 87 H 10.374177 7.552339 -20.914800 0
M  V30 88 H 10.028329 5.853086 -21.111013 0
M  V30 89 H 12.143259 6.511966 -22.550573 0
M  V30 90 H 13.336518 7.922973 -22.663103 0
M  V30 91 H 6.232895 4.927113 -15.917109 0
M  V30 92 H 14.376226 5.161747 -19.145366 0
M  V30 93 H 10.768011 5.580076 -18.657032 0
M  V30 94 H 11.247226 7.257759 -18.692979 0
M  V30 95 H 8.350611 3.218723 -14.231540 0
M  V30 96 H 13.410964 7.716058 -17.844040 0
M  V30 97 H 9.434544 4.203081 -8.145896 0
M  V30 98 H 10.469530 8.463077 -10.782262 0
M  V30 99 H 8.742832 7.434574 -18.867471 0
M  V30 100 H 8.213760 3.353783 -17.651730 0
M  V30 101 H 6.707177 2.762480 -16.948515 0
M  V30 102 H 7.219668 5.822513 -12.576097 0
M  V30 END ATOM
M  V30 BEGIN BOND
M  V30 1 1 9 8
M  V30 2 1 10 8
M  V30 3 1 13 3
M  V30 4 1 13 10
M  V30 5 1 14 1
M  V30 6 2 16 14
M  V30 7 1 18 16
M  V30 8 1 20 2
M  V30 9 1 20 11
M  V30 10 1 23 5
M  V30 11 1 23 15
M  V30 12 1 24 4
M  V30 13 1 25 21
M  V30 14 1 26 9
M  V30 15 1 26 12
M  V30 16 1 27 17
M  V30 17 1 28 22
M  V30 18 1 29 7 CFG=3
M  V30 19 1 29 12
M  V30 20 1 30 29
M  V30 21 2 31 24
M  V30 22 1 32 20
M  V30 23 1 33 22
M  V30 24 1 33 25
M  V30 25 2 35 23
M  V30 26 1 36 3
M  V30 27 1 36 9
M  V30 28 1 36 29
M  V30 29 1 37 2
M  V30 30 1 38 5
M  V30 31 1 38 21
M  V30 32 2 39 6
M  V30 33 1 39 19
M  V30 34 1 39 24
M  V30 35 1 40 17
M  V30 36 1 40 27
M  V30 37 1 41 5
M  V30 38 1 41 34
M  V30 39 1 43 15
M  V30 40 1 43 19
M  V30 41 1 43 38
M  V30 42 1 44 10
M  V30 43 2 44 18
M  V30 44 2 45 8
M  V30 45 1 45 14
M  V30 46 1 46 17
M  V30 47 1 46 32
M  V30 48 1 46 34
M  V30 49 1 47 11
M  V30 50 1 47 37
M  V30 51 1 48 7
M  V30 52 1 48 37
M  V30 53 2 48 42
M  V30 54 1 49 1
M  V30 55 1 50 1
M  V30 56 1 51 1
M  V30 57 1 52 3
M  V30 58 1 53 3
M  V30 59 1 54 4
M  V30 60 1 55 4
M  V30 61 1 5 56 CFG=3
M  V30 62 1 57 7
M  V30 63 1 9 58 CFG=1
M  V30 64 1 10 59 CFG=1
M  V30 65 1 60 11
M  V30 66 1 61 11
M  V30 67 1 62 12
M  V30 68 1 63 12
M  V30 69 1 64 13
M  V30 70 1 65 13
M  V30 71 1 66 16
M  V30 72 1 67 17
M  V30 73 1 68 18
M  V30 74 1 69 19
M  V30 75 1 70 19
M  V30 76 1 20 71 CFG=3
M  V30 77 1 72 22
M  V30 78 1 73 22
M  V30 79 1 74 25
M  V30 80 1 75 25
M  V30 81 1 76 26
M  V30 82 1 77 26
M  V30 83 1 78 28
M  V30 84 1 79 28
M  V30 85 1 80 28
M  V30 86 1 81 30
M  V30 87 1 82 30
M  V30 88 1 83 30
M  V30 89 1 84 4
M  V30 90 1 85 33
M  V30 91 1 86 33
M  V30 92 1 87 34
M  V30 93 1 88 34
M  V30 94 1 89 35
M  V30 95 1 90 35
M  V30 96 1 37 91 CFG=1
M  V30 97 1 38 92 CFG=3
M  V30 98 1 93 41
M  V30 99 1 94 41
M  V30 100 1 95 7
M  V30 101 1 43 96 CFG=1
M  V30 102 1 97 44
M  V30 103 1 98 45
M  V30 104 1 46 99 CFG=1
M  V30 105 1 100 47
M  V30 106 1 101 47
M  V30 107 1 36 102 CFG=3
M  V30 END BOND
M  V30 END CTAB
M  END
>  <i_epik_Tot_Q>  (1) 
1

>  <i_epik_Tot_abs_Q>  (1) 
1

>  <i_i_glide_confnum>  (1) 
961

>  <i_i_glide_lignum>  (1) 
65

>  <i_i_glide_posenum>  (1) 
45

>  <i_i_glide_rotatable_bonds>  (1) 
16

>  <i_lp_mmshare_version>  (1) 
72125

>  <i_m_source_file_index>  (1) 
37

>  <i_f3d_flags>  (1) 
0

>  <num_sample>  (1) 
100

>  <b_lp_Chiralities_Consistent>  (1) 
1

>  <r_epik_Charging_Adjusted_Penalty>  (1) 
0.91210119875661555

>  <r_epik_Ionization_Penalty>  (1) 
0.45605060116919061

>  <r_epik_Ionization_Penalty_Charging>  (1) 
0.45605059937830777

>  <r_epik_Ionization_Penalty_Neutral>  (1) 
1.7908828364046034e-09

>  <r_epik_State_Penalty>  (1) 
0.45605059937830777

>  <r_glide_ring_energy>  (1) 
0.90833713593568233

>  <r_i_docking_score>  (1) 
-1.6078829089411832

>  <r_i_glide_ecoul>  (1) 
-2.7720297911558376

>  <r_i_glide_eff_state_penalty>  (1) 
0.45605059937830777

>  <r_i_glide_einternal>  (1) 
16.182063574868693

>  <r_i_glide_emodel>  (1) 
-13.768979712008537

>  <r_i_glide_emodel_strain>  (1) 
15.784535043213225

>  <r_i_glide_energy>  (1) 
-32.313420826693338

>  <r_i_glide_erotb>  (1) 
0.43548923687221863

>  <r_i_glide_esite>  (1) 
-0.027057466773198757

>  <r_i_glide_evdw>  (1) 
-29.541391035537501

>  <r_i_glide_gscore>  (1) 
-2.063933508319491

>  <r_i_glide_gscore_strain>  (1) 
2.9461337608033062

>  <r_i_glide_hbond>  (1) 
0

>  <r_i_glide_ligand_efficiency>  (1) 
-0.033497560602941318

>  <r_i_glide_ligand_efficiency_ln>  (1) 
-0.33007935934910376

>  <r_i_glide_ligand_efficiency_sa>  (1) 
-0.12173821436249452

>  <r_i_glide_lipo>  (1) 
-1.9506634033247858

>  <r_i_glide_metal>  (1) 
-0

>  <r_i_glide_rewards>  (1) 
-1.5749616154467811

>  <r_lp_Energy>  (1) 
28.938099999999999

>  <r_lp_tautomer_probability>  (1) 
0.99994996000200076

>  <s_epik_Chemistry_Notes>  (1) 
This compound contains an acetal/aminal-like group ( X-CH(R)-Y where X, Y are N, S, or O) that may be acid/base labile, releasing an aldehyde.

>  <s_epik_cmdline>  (1) 
J2VwaWtfcHl0aG9uJywgJy1waHQnLCAnMS4wJywgJy1waCcsICc3LjQnLCAnLXRuJywgJzgnLCAnLW1hJywgJzUwMCcsICctaW1hZScsICc8aW5maWxlLm1hZT4nLCAnLW9tYWUnLCAnPG91dGZpbGUubWFlPic=

>  <s_epik_input>  (1) 
W0NIM11DKFtDSF0xKT1bQ0hdW0NIXT1bQ0hdW0NAQEhdMltDSDJdW0NIMl1OKFtDQEhdM0M9MTIpW0NAXShbQ0gzXSkoW0NIMl1bQ0gyXTMpL1tDSF09QyhbT0hdKS9bQ0BIXShbQ0gyXVtDSDJdNClPW0NASF00T1tDQEhdKFtDSF01T081KVtDSDJdW0NIMl1bQ0BIXTZDKD1bQ0gyXSlTW0NASF0oW0NIMl1DKD1PKUMoPVtDSDJdKVtTSF0pW0NASF02T1tDSDJdW0NIMl1bQ0gyXVtDSDNd

>  <s_glide_docking_method>  (1) 
confgen

>  <s_i_glide_gridfile>  (1) 
gpcr_drd2_6luq_protein_autoprepared_prepared

>  <s_lp_Force_Field>  (1) 
S-OPLS

>  <s_lp_Variant>  (1) 
DiffSBDD_36_num_sample_100-2

>  <s_m_source_file>  (1) 
generated__ligand_DiffSBDD_2026-05-06_prepared.sdf

>  <GenAI_Model>  (1) 
DiffSBDD

>  <Protein>  (1) 
generic_title2

$$$$
DiffSBDD_92_num_sample_100
     RDKit          3D

  0  0  0  0  0  0  0  0  0  0999 V3000
M  V30 BEGIN CTAB
M  V30 COUNTS 65 67 0 0 1
M  V30 BEGIN ATOM
M  V30 1 F 20.266770 17.938161 -12.102784 0
M  V30 2 C 18.965501 21.621747 -15.492359 0 CFG=1
M  V30 3 C 21.958526 17.561952 -18.009559 0
M  V30 4 C 19.188416 20.169141 -9.361290 0
M  V30 5 S 17.177035 22.428278 -17.892027 0
M  V30 6 F 21.665937 20.217263 -17.418989 0
M  V30 7 C 19.995798 18.399317 -10.857073 0
M  V30 8 C 17.264859 18.969397 -19.092253 0
M  V30 9 C 19.217275 20.594736 -11.903111 0 CFG=2
M  V30 10 C 21.434943 18.040048 -20.388602 0
M  V30 11 S 20.571793 21.639775 -14.641204 0
M  V30 12 C 18.733819 19.319233 -19.404065 0 CFG=1
M  V30 13 C 18.556520 21.454992 -17.938869 0
M  V30 14 N 19.288718 21.129260 -16.836165 0
M  V30 15 C 18.513825 21.565124 -20.532378 0
M  V30 16 C 20.234824 17.575709 -9.744969 0
M  V30 17 C 20.672847 20.986631 -19.447123 0 CFG=1
M  V30 18 C 20.220091 22.670387 -13.191569 0
M  V30 19 C 19.434942 19.331344 -8.251854 0
M  V30 20 C 17.282589 21.358648 -13.522334 0
M  V30 21 C 19.473084 19.702806 -10.677786 0
M  V30 22 C 21.596700 19.967010 -18.725199 0 CFG=2
M  V30 23 C 19.107935 20.844256 -19.278905 0 CFG=2
M  V30 24 C 19.956937 18.038953 -8.445380 0
M  V30 25 O 18.672450 21.419475 -9.160634 0 CHG=-1
M  V30 26 F 19.167109 19.769317 -6.997325 0
M  V30 27 C 20.086072 21.879352 -11.879825 0
M  V30 28 C 21.155623 18.498459 -18.938403 0
M  V30 29 C 17.916348 20.725511 -14.783081 0
M  V30 30 C 17.704352 20.777734 -12.158661 0
M  V30 31 O 21.134031 22.307381 -19.220673 0
M  V30 32 C 19.655233 18.377024 -18.594998 0
M  V30 33 H 18.626379 22.657053 -15.532543 0
M  V30 34 H 23.031204 17.653752 -18.183199 0
M  V30 35 H 21.778259 17.778785 -16.955927 0
M  V30 36 H 21.688674 16.517512 -18.169587 0
M  V30 37 H 17.035781 19.066388 -18.030452 0
M  V30 38 H 16.571834 19.601354 -19.641461 0
M  V30 39 H 17.042867 17.939810 -19.374796 0
M  V30 40 H 19.585597 20.009500 -12.738434 0
M  V30 41 H 22.501817 18.073508 -20.611816 0
M  V30 42 H 21.104391 17.012860 -20.547222 0
M  V30 43 H 20.937178 18.654377 -21.136870 0
M  V30 44 H 18.858134 19.047608 -20.451865 0
M  V30 45 H 20.113840 20.552558 -16.952301 0
M  V30 46 H 18.919901 21.165617 -21.462111 0
M  V30 47 H 17.434843 21.450541 -20.619175 0
M  V30 48 H 18.728187 22.634537 -20.532046 0
M  V30 49 H 20.631289 16.583881 -9.891637 0
M  V30 50 H 20.890304 20.831476 -20.503750 0
M  V30 51 H 21.059920 23.354223 -13.082719 0
M  V30 52 H 19.352982 23.299721 -13.374106 0
M  V30 53 H 16.206810 21.211411 -13.587430 0
M  V30 54 H 17.390370 22.440847 -13.534115 0
M  V30 55 H 22.619797 20.096548 -19.081118 0
M  V30 56 H 20.142640 17.400862 -7.594531 0
M  V30 57 H 21.093111 21.582795 -11.584401 0
M  V30 58 H 19.748530 22.567859 -11.107554 0
M  V30 59 H 17.100333 20.535641 -15.480887 0
M  V30 60 H 18.326481 19.739151 -14.571540 0
M  V30 61 H 17.236696 19.795985 -12.071393 0
M  V30 62 H 17.258766 21.379769 -11.367146 0
M  V30 63 H 20.617891 22.902457 -19.743188 0
M  V30 64 H 19.512370 18.568755 -17.531598 0
M  V30 65 H 19.338208 17.344376 -18.748042 0
M  V30 END ATOM
M  V30 BEGIN BOND
M  V30 1 1 7 1
M  V30 2 1 11 2
M  V30 3 1 12 8
M  V30 4 2 13 5
M  V30 5 1 14 2
M  V30 6 1 14 13
M  V30 7 1 16 7
M  V30 8 1 18 11
M  V30 9 2 19 4
M  V30 10 1 21 4
M  V30 11 2 21 7
M  V30 12 1 21 9
M  V30 13 1 22 6
M  V30 14 1 22 17
M  V30 15 1 23 12
M  V30 16 1 23 13
M  V30 17 1 23 15 CFG=3
M  V30 18 1 23 17
M  V30 19 2 24 16
M  V30 20 1 24 19
M  V30 21 1 25 4
M  V30 22 1 26 19
M  V30 23 1 27 9
M  V30 24 1 27 18
M  V30 25 1 28 3
M  V30 26 1 28 10
M  V30 27 1 28 22
M  V30 28 1 29 2
M  V30 29 1 29 20
M  V30 30 1 30 9
M  V30 31 1 30 20
M  V30 32 1 31 17
M  V30 33 1 32 12
M  V30 34 1 32 28
M  V30 35 1 2 33 CFG=3
M  V30 36 1 34 3
M  V30 37 1 35 3
M  V30 38 1 36 3
M  V30 39 1 37 8
M  V30 40 1 38 8
M  V30 41 1 39 8
M  V30 42 1 9 40 CFG=3
M  V30 43 1 41 10
M  V30 44 1 42 10
M  V30 45 1 43 10
M  V30 46 1 12 44 CFG=3
M  V30 47 1 45 14
M  V30 48 1 46 15
M  V30 49 1 47 15
M  V30 50 1 48 15
M  V30 51 1 49 16
M  V30 52 1 17 50 CFG=3
M  V30 53 1 51 18
M  V30 54 1 52 18
M  V30 55 1 53 20
M  V30 56 1 54 20
M  V30 57 1 22 55 CFG=3
M  V30 58 1 56 24
M  V30 59 1 57 27
M  V30 60 1 58 27
M  V30 61 1 59 29
M  V30 62 1 60 29
M  V30 63 1 61 30
M  V30 64 1 62 30
M  V30 65 1 63 31
M  V30 66 1 64 32
M  V30 67 1 65 32
M  V30 END BOND
M  V30 END CTAB
M  END
>  <i_epik_Tot_Q>  (1) 
-1

>  <i_epik_Tot_abs_Q>  (1) 
1

>  <i_i_glide_confnum>  (1) 
57

>  <i_i_glide_lignum>  (1) 
187

>  <i_i_glide_posenum>  (1) 
30

>  <i_i_glide_rotatable_bonds>  (1) 
5

>  <i_lp_mmshare_version>  (1) 
72125

>  <i_m_source_file_index>  (1) 
93

>  <i_f3d_flags>  (1) 
0

>  <num_sample>  (1) 
100

>  <b_lp_Chiralities_Consistent>  (1) 
1

>  <r_epik_Charging_Adjusted_Penalty>  (1) 
1.873832089241678

>  <r_epik_Ionization_Penalty>  (1) 
0.93691654502727262

>  <r_epik_Ionization_Penalty_Charging>  (1) 
0.93691604462083899

>  <r_epik_Ionization_Penalty_Neutral>  (1) 
5.0040643357861175e-07

>  <r_epik_State_Penalty>  (1) 
0.93691604462083899

>  <r_glide_ring_energy>  (1) 
0

>  <r_i_docking_score>  (1) 
-1.5774632190570426

>  <r_i_glide_ecoul>  (1) 
0.11988294738526667

>  <r_i_glide_eff_state_penalty>  (1) 
0.93691604462083899

>  <r_i_glide_einternal>  (1) 
2.9326757401783681

>  <r_i_glide_emodel>  (1) 
-25.332496040718713

>  <r_i_glide_emodel_strain>  (1) 
0.028493219101662248

>  <r_i_glide_energy>  (1) 
-23.532387165132

>  <r_i_glide_erotb>  (1) 
0.34068725043507714

>  <r_i_glide_esite>  (1) 
0

>  <r_i_glide_evdw>  (1) 
-23.652270112517268

>  <r_i_glide_gscore>  (1) 
-2.5143792636778817

>  <r_i_glide_gscore_strain>  (1) 
0

>  <r_i_glide_hbond>  (1) 
0

>  <r_i_glide_ligand_efficiency>  (1) 
-0.04929572559553258

>  <r_i_glide_ligand_efficiency_ln>  (1) 
-0.3532370147701917

>  <r_i_glide_ligand_efficiency_sa>  (1) 
-0.15650417333576824

>  <r_i_glide_lipo>  (1) 
-1.170334836973258

>  <r_i_glide_metal>  (1) 
-0

>  <r_i_glide_rewards>  (1) 
-0.52010061362162707

>  <r_lp_Energy>  (1) 
80.447412999999997

>  <s_epik_Chemistry_Notes>  (1) 
This compound contains an acetal/aminal-like group ( X-CH(R)-Y where X, Y are N, S, or O) that may be acid/base labile, releasing an aldehyde.

>  <s_epik_cmdline>  (1) 
J2VwaWtfcHl0aG9uJywgJy1waHQnLCAnMS4wJywgJy1waCcsICc3LjQnLCAnLXRuJywgJzgnLCAnLW1hJywgJzUwMCcsICctaW1hZScsICc8aW5maWxlLm1hZT4nLCAnLW9tYWUnLCAnPG91dGZpbGUubWFlPic=

>  <s_epik_input>  (1) 
W09IXWMxYyhGKVtjSF1bY0hdYyhGKWMxW0NAQEhdKFtDSDJdW0NIMl1bQ0gyXTIpW0NIMl1bQ0gyXVNbQ0BIXTJbTkhdQyg9UylbQ0BdMyhbQ0gzXSlbQ0BIXShbQ0gzXSlbQ0gyXUMoW0NIM10pKFtDSDNdKVtDQEhdKEYpW0NAQEhdM1tPSF0=

>  <s_glide_docking_method>  (1) 
confgen

>  <s_i_glide_gridfile>  (1) 
gpcr_drd2_6luq_protein_autoprepared_prepared

>  <s_lp_Force_Field>  (1) 
S-OPLS

>  <s_lp_Variant>  (1) 
DiffSBDD_92_num_sample_100-2

>  <s_m_source_file>  (1) 
generated__ligand_DiffSBDD_2026-05-06_prepared.sdf

>  <GenAI_Model>  (1) 
DiffSBDD

>  <Protein>  (1) 
generic_title2

$$$$
DiffSBDD_33_num_sample_100
     RDKit          3D

  0  0  0  0  0  0  0  0  0  0999 V3000
M  V30 BEGIN CTAB
M  V30 COUNTS 81 82 0 0 1
M  V30 BEGIN ATOM
M  V30 1 C 7.530829 3.907533 -15.428762 0
M  V30 2 C 11.487429 0.215892 -20.334070 0
M  V30 3 C 10.029422 1.796220 -18.507664 0
M  V30 4 C 11.181576 5.944908 -6.853741 0
M  V30 5 C 7.202804 1.661815 -14.316393 0
M  V30 6 C 9.237989 2.652982 -17.528672 0
M  V30 7 C 11.427848 1.661059 -18.363300 0
M  V30 8 C 7.640560 2.560571 -15.483262 0
M  V30 9 C 6.997766 4.581278 -14.268876 0
M  V30 10 C 7.107308 5.854117 -14.009385 0
M  V30 11 C 8.249701 1.503569 -13.169600 0
M  V30 12 C 7.293641 6.745984 -11.712835 0
M  V30 13 C 10.207728 8.626396 -7.426117 0
M  V30 14 C 9.097747 2.730131 -12.692006 0
M  V30 15 C 11.322485 6.182818 -5.339709 0
M  V30 16 C 14.451940 1.819327 -19.893359 0 CFG=2
M  V30 17 C 8.237543 1.834024 -16.685787 0
M  V30 18 C 10.597343 8.673804 -8.918034 0
M  V30 19 C 7.445079 6.843695 -13.225585 0
M  V30 20 C 10.094002 0.350143 -20.474862 0
M  V30 21 C 9.741412 6.089679 -7.390421 0 CFG=1
M  V30 22 C 8.577115 3.728731 -11.661833 0
M  V30 23 C 14.207041 1.842064 -21.411826 0
M  V30 24 O 15.826231 1.613404 -19.644584 0
M  V30 25 C 9.365860 1.139253 -19.563813 0
M  V30 26 N 14.156033 -0.625469 -19.457068 0
M  V30 27 C 9.238663 7.503248 -7.053900 0
M  V30 28 C 12.159837 0.871137 -19.276654 0
M  V30 29 C 13.674060 0.730698 -19.121898 0 CFG=2
M  V30 30 C 9.282365 5.091131 -11.723494 0
M  V30 31 O 11.804123 9.369337 -9.096191 0
M  V30 32 O 9.730774 5.786523 -8.793251 0
M  V30 33 C 8.568105 6.201572 -10.940858 0 CFG=2
M  V30 34 C 8.455714 5.705956 -9.441570 0
M  V30 35 H 7.879843 4.500254 -16.259412 0
M  V30 36 H 12.041873 -0.387067 -21.037251 0
M  V30 37 H 11.866300 6.594690 -7.394574 0
M  V30 38 H 11.553518 4.969252 -7.091815 0
M  V30 39 H 6.252507 1.991272 -13.901967 0
M  V30 40 H 6.958612 0.677042 -14.720496 0
M  V30 41 H 9.940790 3.163550 -16.866910 0
M  V30 42 H 8.723455 3.429825 -18.094789 0
M  V30 43 H 11.938490 2.164097 -17.555025 0
M  V30 44 H 6.548107 3.962611 -13.518331 0
M  V30 45 H 7.779628 1.023011 -12.309765 0
M  V30 46 H 8.970306 0.763663 -13.525234 0
M  V30 47 H 6.411059 6.155607 -11.460684 0
M  V30 48 H 7.071766 7.786637 -11.491689 0
M  V30 49 H 11.108881 8.588300 -6.818938 0
M  V30 50 H 9.709210 9.523234 -7.091668 0
M  V30 51 H 10.030315 2.338018 -12.291712 0
M  V30 52 H 9.403354 3.368944 -13.491778 0
M  V30 53 H 12.234659 5.733148 -4.964132 0
M  V30 54 H 10.486588 5.769295 -4.776506 0
M  V30 55 H 11.370077 7.239873 -5.091981 0
M  V30 56 H 14.187677 2.796740 -19.489387 0
M  V30 57 H 8.768615 0.962961 -16.299860 0
M  V30 58 H 7.428167 1.450537 -17.307264 0
M  V30 59 H 10.829406 7.696172 -9.322006 0
M  V30 60 H 9.790789 9.088107 -9.520965 0
M  V30 61 H 7.968735 7.707966 -13.606050 0
M  V30 62 H 9.581359 -0.151232 -21.284768 0
M  V30 63 H 9.086951 5.370478 -6.908195 0
M  V30 64 H 7.492702 3.816809 -11.664334 0
M  V30 65 H 8.877130 3.369297 -10.692290 0
M  V30 66 H 13.172985 2.097755 -21.642960 0
M  V30 67 H 14.418329 0.877615 -21.873478 0
M  V30 68 H 14.837652 2.588222 -21.895382 0
M  V30 69 H 16.011048 0.720502 -19.901244 0
M  V30 70 H 8.296925 1.241971 -19.675217 0
M  V30 71 H 14.731956 -0.998432 -18.701551 0
M  V30 72 H 13.361757 -1.256141 -19.551795 0
M  V30 73 H 8.273807 7.703885 -7.491679 0
M  V30 74 H 9.053555 7.562831 -5.980685 0
M  V30 75 H 13.867924 0.894769 -18.060637 0
M  V30 76 H 10.234846 4.938061 -11.252560 0
M  V30 77 H 9.525730 5.406058 -12.736393 0
M  V30 78 H 11.639105 10.293554 -9.002636 0
M  V30 79 H 9.250120 7.050117 -10.930536 0
M  V30 80 H 8.089091 4.687534 -9.356119 0
M  V30 81 H 7.716149 6.169304 -8.831435 0
M  V30 END ATOM
M  V30 BEGIN BOND
M  V30 1 1 6 3
M  V30 2 2 7 3
M  V30 3 2 8 1
M  V30 4 1 8 5
M  V30 5 1 9 1
M  V30 6 2 10 9
M  V30 7 1 11 5
M  V30 8 1 14 11
M  V30 9 1 15 4
M  V30 10 1 17 6
M  V30 11 1 17 8
M  V30 12 1 18 13
M  V30 13 2 19 10
M  V30 14 1 19 12
M  V30 15 1 20 2
M  V30 16 1 21 4
M  V30 17 1 22 14
M  V30 18 1 23 16
M  V30 19 1 24 16
M  V30 20 1 25 3
M  V30 21 2 25 20
M  V30 22 1 27 13
M  V30 23 1 27 21
M  V30 24 2 28 2
M  V30 25 1 28 7
M  V30 26 1 29 16
M  V30 27 1 29 26
M  V30 28 1 29 28
M  V30 29 1 30 22
M  V30 30 1 31 18
M  V30 31 1 32 21
M  V30 32 1 33 12
M  V30 33 1 33 30
M  V30 34 1 34 32
M  V30 35 1 34 33
M  V30 36 1 35 1
M  V30 37 1 36 2
M  V30 38 1 37 4
M  V30 39 1 38 4
M  V30 40 1 39 5
M  V30 41 1 40 5
M  V30 42 1 41 6
M  V30 43 1 42 6
M  V30 44 1 43 7
M  V30 45 1 44 9
M  V30 46 1 45 11
M  V30 47 1 46 11
M  V30 48 1 47 12
M  V30 49 1 48 12
M  V30 50 1 49 13
M  V30 51 1 50 13
M  V30 52 1 51 14
M  V30 53 1 52 14
M  V30 54 1 53 15
M  V30 55 1 54 15
M  V30 56 1 55 15
M  V30 57 1 16 56 CFG=1
M  V30 58 1 57 17
M  V30 59 1 58 17
M  V30 60 1 59 18
M  V30 61 1 60 18
M  V30 62 1 61 19
M  V30 63 1 62 20
M  V30 64 1 21 63 CFG=1
M  V30 65 1 64 22
M  V30 66 1 65 22
M  V30 67 1 66 23
M  V30 68 1 67 23
M  V30 69 1 68 23
M  V30 70 1 69 24
M  V30 71 1 70 25
M  V30 72 1 71 26
M  V30 73 1 72 26
M  V30 74 1 73 27
M  V30 75 1 74 27
M  V30 76 1 29 75 CFG=1
M  V30 77 1 76 30
M  V30 78 1 77 30
M  V30 79 1 78 31
M  V30 80 1 33 79 CFG=1
M  V30 81 1 80 34
M  V30 82 1 81 34
M  V30 END BOND
M  V30 END CTAB
M  END
>  <i_epik_Tot_Q>  (1) 
0

>  <i_epik_Tot_abs_Q>  (1) 
0

>  <i_i_glide_confnum>  (1) 
151

>  <i_i_glide_lignum>  (1) 
59

>  <i_i_glide_posenum>  (1) 
49

>  <i_i_glide_rotatable_bonds>  (1) 
14

>  <i_lp_mmshare_version>  (1) 
72125

>  <i_m_source_file_index>  (1) 
34

>  <i_f3d_flags>  (1) 
0

>  <num_sample>  (1) 
100

>  <b_lp_Chiralities_Consistent>  (1) 
1

>  <r_epik_Charging_Adjusted_Penalty>  (1) 
1.2129050419488003

>  <r_epik_Ionization_Penalty>  (1) 
1.2129053275801602

>  <r_epik_Ionization_Penalty_Charging>  (1) 
0

>  <r_epik_Ionization_Penalty_Neutral>  (1) 
1.2129053275801602

>  <r_epik_State_Penalty>  (1) 
1.2129050419488003

>  <r_glide_ring_energy>  (1) 
0

>  <r_i_docking_score>  (1) 
-1.5640884904885255

>  <r_i_glide_ecoul>  (1) 
-1.0766577865493043

>  <r_i_glide_eff_state_penalty>  (1) 
1.2129050419488003

>  <r_i_glide_einternal>  (1) 
6.7715982719109729

>  <r_i_glide_emodel>  (1) 
-20.396451495569838

>  <r_i_glide_emodel_strain>  (1) 
4.3661214800241908

>  <r_i_glide_energy>  (1) 
-23.976853629872974

>  <r_i_glide_erotb>  (1) 
1.0070902464162688

>  <r_i_glide_esite>  (1) 
0

>  <r_i_glide_evdw>  (1) 
-22.900195843323669

>  <r_i_glide_gscore>  (1) 
-2.7769935324373258

>  <r_i_glide_gscore_strain>  (1) 
0.09153037000604769

>  <r_i_glide_hbond>  (1) 
0

>  <r_i_glide_ligand_efficiency>  (1) 
-0.046002602661427222

>  <r_i_glide_ligand_efficiency_ln>  (1) 
-0.34555101874505706

>  <r_i_glide_ligand_efficiency_sa>  (1) 
-0.14903057447143861

>  <r_i_glide_lipo>  (1) 
-1.8715401992563006

>  <r_i_glide_metal>  (1) 
-0

>  <r_i_glide_rewards>  (1) 
-0.69756548945476271

>  <r_lp_Energy>  (1) 
8.1818030000000004

>  <s_epik_cmdline>  (1) 
J2VwaWtfcHl0aG9uJywgJy1waHQnLCAnMS4wJywgJy1waCcsICc3LjQnLCAnLXRuJywgJzgnLCAnLW1hJywgJzUwMCcsICctaW1hZScsICc8aW5maWxlLm1hZT4nLCAnLW9tYWUnLCAnPG91dGZpbGUubWFlPic=

>  <s_epik_input>  (1) 
W0NIM11bQ0BIXShbT0hdKVtDQEhdKFtOSDJdKWMoW2NIXVtjSF1bY0hdMSlbY0hdYzFbQ0gyXVtDSDJdQ1wyPVtDSF1cW0NIXT1DPVtDSF1bQ0gyXVtDQEhdKFtDSDJdW0NIMl1bQ0gyXVtDSDJdW0NIMl0yKVtDSDJdT1tDQEBIXShbQ0gyXVtDSDNdKVtDSDJdW0NIMl1bQ0gyXVtPSF0=

>  <s_glide_docking_method>  (1) 
confgen

>  <s_i_glide_gridfile>  (1) 
gpcr_drd2_6luq_protein_autoprepared_prepared

>  <s_lp_Force_Field>  (1) 
S-OPLS

>  <s_lp_Variant>  (1) 
DiffSBDD_33_num_sample_100-2

>  <s_m_source_file>  (1) 
generated__ligand_DiffSBDD_2026-05-06_prepared.sdf

>  <GenAI_Model>  (1) 
DiffSBDD

>  <Protein>  (1) 
generic_title2

$$$$
DiffSBDD_89_num_sample_100
     RDKit          3D

  0  0  0  0  0  0  0  0  0  0999 V3000
M  V30 BEGIN CTAB
M  V30 COUNTS 74 79 0 0 1
M  V30 BEGIN ATOM
M  V30 1 C 8.927603 5.272904 -10.248455 0
M  V30 2 C 9.575392 4.649009 -12.757181 0
M  V30 3 C 8.686820 4.421525 -11.513617 0
M  V30 4 C 9.114721 7.580091 -12.691694 0
M  V30 5 C 9.570813 5.281287 -15.194839 0 CFG=1
M  V30 6 C 7.809501 4.135385 -18.385719 0 CFG=2
M  V30 7 C 11.863704 8.854571 -6.698068 0
M  V30 8 C 9.271998 4.141916 -16.133152 0 CFG=2
M  V30 9 C 11.828988 9.371187 -5.269787 0
M  V30 10 C 13.104003 8.508096 -8.764456 0
M  V30 11 C 10.119495 3.663077 -17.315360 0
M  V30 12 C 11.041406 5.773137 -15.161666 0
M  V30 13 C 9.444430 8.102810 -6.495439 0
M  V30 14 C 7.134979 2.797951 -18.024184 0
M  V30 15 C 11.985223 7.924063 -9.348107 0
M  V30 16 C 8.814551 5.554986 -16.513550 0 CFG=1
M  V30 17 C 6.809901 0.980999 -16.264247 0
M  V30 18 C 8.220635 6.556432 -13.436860 0
M  V30 19 C 10.730978 8.251194 -7.278298 0
M  V30 20 C 8.232804 3.054612 -15.690319 0
M  V30 21 C 8.001614 4.962500 -9.083254 0
M  V30 22 C 9.125613 7.742938 -11.219455 0
M  V30 23 C 9.672629 6.590805 -10.410929 0 CFG=1
M  V30 24 C 9.440301 4.569152 -8.998649 0
M  V30 25 C 7.744507 2.079865 -16.800766 0 CFG=2
M  V30 26 N 8.878206 5.313218 -13.864918 0
M  V30 27 C 9.328181 3.877256 -18.638203 0
M  V30 28 C 7.545813 5.262010 -17.314040 0
M  V30 29 O 9.690323 7.184059 -9.130834 0
M  V30 30 C 10.792844 7.780102 -8.598684 0
M  V30 31 C 13.045227 8.969233 -7.446065 0
M  V30 32 H 9.877628 3.664305 -13.091171 0
M  V30 33 H 10.504727 5.147365 -12.498005 0
M  V30 34 H 7.625268 4.441567 -11.773248 0
M  V30 35 H 8.855379 3.384293 -11.225595 0
M  V30 36 H 8.733087 8.524811 -13.073358 0
M  V30 37 H 10.158662 7.491866 -12.977436 0
M  V30 38 H 7.362442 4.465018 -19.327292 0
M  V30 39 H 12.820281 9.701769 -4.956265 0
M  V30 40 H 11.154399 10.223957 -5.178912 0
M  V30 41 H 11.516520 8.581998 -4.586588 0
M  V30 42 H 14.019630 8.602568 -9.331817 0
M  V30 43 H 10.428607 2.630397 -17.168770 0
M  V30 44 H 11.044658 4.232020 -17.389844 0
M  V30 45 H 11.706252 4.980243 -15.491595 0
M  V30 46 H 11.299829 6.559261 -15.880336 0
M  V30 47 H 11.363174 6.160184 -14.199032 0
M  V30 48 H 9.432657 8.705771 -5.598983 0
M  V30 49 H 8.603695 8.423529 -7.110703 0
M  V30 50 H 9.286454 7.059281 -6.218549 0
M  V30 51 H 6.074653 2.961031 -17.892086 0
M  V30 52 H 7.201322 2.128470 -18.883023 0
M  V30 53 H 12.048270 7.583721 -10.364312 0
M  V30 54 H 9.462805 6.143600 -17.162077 0
M  V30 55 H 5.869050 1.369589 -15.885331 0
M  V30 56 H 6.559882 0.269825 -17.052163 0
M  V30 57 H 7.277986 0.429372 -15.450162 0
M  V30 58 H 7.340213 6.336032 -12.835319 0
M  V30 59 H 7.827802 7.021994 -14.343282 0
M  V30 60 H 8.634561 2.459975 -14.878246 0
M  V30 61 H 7.369823 3.536890 -15.229694 0
M  V30 62 H 7.706938 5.769128 -8.424565 0
M  V30 63 H 7.264924 4.169662 -9.202203 0
M  V30 64 H 8.234832 8.177641 -10.855595 0
M  V30 65 H 9.810012 8.570282 -11.046614 0
M  V30 66 H 10.634237 6.315963 -10.800449 0
M  V30 67 H 9.834839 3.599691 -9.218077 0
M  V30 68 H 10.016689 5.083754 -8.233504 0
M  V30 69 H 8.609446 1.524439 -17.156873 0
M  V30 70 H 9.472463 3.028462 -19.305574 0
M  V30 71 H 9.740352 4.739548 -19.162706 0
M  V30 72 H 6.698510 5.043121 -16.663969 0
M  V30 73 H 7.272148 6.180643 -17.830931 0
M  V30 74 H 13.919890 9.418926 -7.000363 0
M  V30 END ATOM
M  V30 BEGIN BOND
M  V30 1 1 3 1
M  V30 2 1 3 2
M  V30 3 1 8 5
M  V30 4 1 9 7
M  V30 5 1 8 11 CFG=3
M  V30 6 1 5 12 CFG=1
M  V30 7 1 14 6
M  V30 8 1 15 10
M  V30 9 1 16 5
M  V30 10 1 16 8
M  V30 11 1 18 4
M  V30 12 2 19 7
M  V30 13 1 19 13
M  V30 14 1 20 8
M  V30 15 1 21 1
M  V30 16 1 22 4
M  V30 17 1 23 1
M  V30 18 1 23 22
M  V30 19 1 24 1
M  V30 20 1 24 21
M  V30 21 1 25 14
M  V30 22 1 25 17
M  V30 23 1 25 20
M  V30 24 1 26 2
M  V30 25 1 26 5
M  V30 26 1 26 18
M  V30 27 1 27 6
M  V30 28 1 27 11
M  V30 29 1 28 6
M  V30 30 1 28 16
M  V30 31 1 29 23
M  V30 32 2 30 15
M  V30 33 1 30 19
M  V30 34 1 30 29
M  V30 35 1 31 7
M  V30 36 2 31 10
M  V30 37 1 32 2
M  V30 38 1 33 2
M  V30 39 1 34 3
M  V30 40 1 35 3
M  V30 41 1 36 4
M  V30 42 1 37 4
M  V30 43 1 6 38 CFG=3
M  V30 44 1 39 9
M  V30 45 1 40 9
M  V30 46 1 41 9
M  V30 47 1 42 10
M  V30 48 1 43 11
M  V30 49 1 44 11
M  V30 50 1 45 12
M  V30 51 1 46 12
M  V30 52 1 47 12
M  V30 53 1 48 13
M  V30 54 1 49 13
M  V30 55 1 50 13
M  V30 56 1 51 14
M  V30 57 1 52 14
M  V30 58 1 53 15
M  V30 59 1 16 54 CFG=3
M  V30 60 1 55 17
M  V30 61 1 56 17
M  V30 62 1 57 17
M  V30 63 1 58 18
M  V30 64 1 59 18
M  V30 65 1 60 20
M  V30 66 1 61 20
M  V30 67 1 62 21
M  V30 68 1 63 21
M  V30 69 1 64 22
M  V30 70 1 65 22
M  V30 71 1 23 66 CFG=3
M  V30 72 1 67 24
M  V30 73 1 68 24
M  V30 74 1 25 69 CFG=3
M  V30 75 1 70 27
M  V30 76 1 71 27
M  V30 77 1 72 28
M  V30 78 1 73 28
M  V30 79 1 74 31
M  V30 END BOND
M  V30 END CTAB
M  END
>  <i_epik_Tot_Q>  (1) 
0

>  <i_epik_Tot_abs_Q>  (1) 
0

>  <i_i_glide_confnum>  (1) 
75

>  <i_i_glide_lignum>  (1) 
180

>  <i_i_glide_posenum>  (1) 
57

>  <i_i_glide_rotatable_bonds>  (1) 
3

>  <i_lp_mmshare_version>  (1) 
72125

>  <i_m_source_file_index>  (1) 
90

>  <i_f3d_flags>  (1) 
0

>  <num_sample>  (1) 
100

>  <b_lp_Chiralities_Consistent>  (1) 
1

>  <r_epik_Charging_Adjusted_Penalty>  (1) 
1.2690052337476654

>  <r_epik_Ionization_Penalty>  (1) 
1.2690052337476654

>  <r_epik_Ionization_Penalty_Charging>  (1) 
0

>  <r_epik_Ionization_Penalty_Neutral>  (1) 
1.2690052337476654

>  <r_epik_State_Penalty>  (1) 
1.2690052337476654

>  <r_glide_ring_energy>  (1) 
2.0637494900466691

>  <r_i_docking_score>  (1) 
-1.3610298021967069

>  <r_i_glide_ecoul>  (1) 
-0.18139063527235144

>  <r_i_glide_eff_state_penalty>  (1) 
1.2690052337476654

>  <r_i_glide_einternal>  (1) 
1.3198517737294821

>  <r_i_glide_emodel>  (1) 
-4.0220948746773342

>  <r_i_glide_emodel_strain>  (1) 
6.7754992765499651

>  <r_i_glide_energy>  (1) 
-8.8031507785988534

>  <r_i_glide_erotb>  (1) 
0.33412944557780477

>  <r_i_glide_esite>  (1) 
0

>  <r_i_glide_evdw>  (1) 
-8.6217601433265028

>  <r_i_glide_gscore>  (1) 
-2.6300350359443723

>  <r_i_glide_gscore_strain>  (1) 
0.69387481913749127

>  <r_i_glide_hbond>  (1) 
0

>  <r_i_glide_ligand_efficiency>  (1) 
-0.043904187167635708

>  <r_i_glide_ligand_efficiency_ln>  (1) 
-0.30695393094954665

>  <r_i_glide_ligand_efficiency_sa>  (1) 
-0.1379197641273813

>  <r_i_glide_lipo>  (1) 
-2.0118959238127472

>  <r_i_glide_metal>  (1) 
-0

>  <r_i_glide_rewards>  (1) 
-1.1878467743897434

>  <r_lp_Energy>  (1) 
72.584220999999999

>  <r_lp_tautomer_probability>  (1) 
1

>  <s_epik_cmdline>  (1) 
J2VwaWtfcHl0aG9uJywgJy1waHQnLCAnMS4wJywgJy1waCcsICc3LjQnLCAnLXRuJywgJzgnLCAnLW1hJywgJzUwMCcsICctaW1hZScsICc8aW5maWxlLm1hZT4nLCAnLW9tYWUnLCAnPG91dGZpbGUubWFlPic=

>  <s_epik_input>  (1) 
W0NIM11bQ0BIXShbQ0gyXTEpW0NIMl1bQ0BIXShbQ0gyXVtDSDJdMilbQ0gyXVtDQEhdKFtDQEBdMTIzKVtDQEBdMyhbQ0gzXSlOKFtDSDJdW0NIMl1DNDVbQ0gyXVtDSDJdNSlbQ0gyXVtDSDJdW0NIMl1bQ0BIXTRPYyhbY0hdW2NIXVtjSF02KWMoW0NIM10pYzZbQ0gzXQ==

>  <s_glide_docking_method>  (1) 
confgen

>  <s_i_glide_gridfile>  (1) 
gpcr_drd2_6luq_protein_autoprepared_prepared

>  <s_lp_Force_Field>  (1) 
S-OPLS

>  <s_lp_Variant>  (1) 
DiffSBDD_89_num_sample_100-2

>  <s_m_source_file>  (1) 
generated__ligand_DiffSBDD_2026-05-06_prepared.sdf

>  <GenAI_Model>  (1) 
DiffSBDD

>  <Protein>  (1) 
generic_title2

$$$$
DiffSBDD_92_num_sample_100
     RDKit          3D

  0  0  0  0  0  0  0  0  0  0999 V3000
M  V30 BEGIN CTAB
M  V30 COUNTS 65 67 0 0 1
M  V30 BEGIN ATOM
M  V30 1 F 17.833492 15.893064 2.908333 0
M  V30 2 C 18.866282 20.707425 -0.840471 0 CFG=1
M  V30 3 C 23.807005 17.918948 -1.145474 0
M  V30 4 C 16.638381 18.941039 4.612906 0
M  V30 5 S 18.738826 21.073628 -3.916887 0
M  V30 6 F 22.386415 20.152411 -0.566372 0
M  V30 7 C 17.248692 16.701564 3.821629 0
M  V30 8 C 21.105889 18.969304 -5.255008 0
M  V30 9 C 17.922821 18.711966 2.388297 0 CFG=2
M  V30 10 C 24.912274 19.106550 -3.021521 0
M  V30 11 S 19.340824 21.438255 0.756443 0
M  V30 12 C 22.038295 19.619136 -4.214721 0 CFG=1
M  V30 13 C 20.129084 20.913846 -2.972836 0
M  V30 14 N 20.107124 20.730056 -1.623205 0
M  V30 15 C 21.616929 22.069159 -4.716462 0
M  V30 16 C 16.635566 16.140460 4.956033 0
M  V30 17 C 22.711852 21.413134 -2.572537 0 CFG=1
M  V30 18 C 20.092967 20.054853 1.667148 0
M  V30 19 C 16.026017 18.364884 5.746579 0
M  V30 20 C 16.913832 19.160386 -0.006916 0
M  V30 21 C 17.254427 18.104844 3.637412 0
M  V30 22 C 23.246297 20.356234 -1.562522 0 CFG=2
M  V30 23 C 21.575241 20.987244 -3.590685 0 CFG=2
M  V30 24 C 16.025309 16.969236 5.915132 0
M  V30 25 O 16.634764 20.300737 4.461716 0 CHG=-1
M  V30 26 F 15.436944 19.156185 6.676609 0
M  V30 27 C 19.182629 19.530378 2.789823 0
M  V30 28 C 23.590412 19.000236 -2.226687 0
M  V30 29 C 18.260359 19.284613 -0.747245 0
M  V30 30 C 16.888551 19.467408 1.507555 0
M  V30 31 O 22.433580 22.627132 -1.897494 0
M  V30 32 C 22.421431 18.569090 -3.143865 0
M  V30 33 H 18.125459 21.395984 -1.246717 0
M  V30 34 H 24.584539 18.211181 -0.438768 0
M  V30 35 H 22.898706 17.730094 -0.571484 0
M  V30 36 H 24.107201 16.968725 -1.588126 0
M  V30 37 H 20.234840 18.522809 -4.780804 0
M  V30 38 H 20.762821 19.668946 -6.015161 0
M  V30 39 H 21.624225 18.169308 -5.781731 0
M  V30 40 H 18.282319 17.875339 1.792084 0
M  V30 41 H 25.748931 19.331048 -2.359328 0
M  V30 42 H 25.145015 18.169362 -3.528272 0
M  V30 43 H 24.896805 19.887591 -3.779577 0
M  V30 44 H 22.940743 19.835657 -4.784970 0
M  V30 45 H 20.989681 20.648297 -1.129254 0
M  V30 46 H 22.626578 22.216915 -5.100865 0
M  V30 47 H 21.009791 21.819205 -5.585160 0
M  V30 48 H 21.269595 23.038234 -4.355920 0
M  V30 49 H 16.633713 15.069209 5.091408 0
M  V30 50 H 23.585445 21.663972 -3.174375 0
M  V30 51 H 20.443445 19.261190 1.011604 0
M  V30 52 H 20.994455 20.456301 2.130264 0
M  V30 53 H 16.555377 18.139523 -0.145977 0
M  V30 54 H 16.177678 19.794222 -0.502702 0
M  V30 55 H 24.133786 20.753924 -1.067865 0
M  V30 56 H 15.556454 16.532665 6.784101 0
M  V30 57 H 19.795129 18.892181 3.427517 0
M  V30 58 H 18.910794 20.378439 3.415354 0
M  V30 59 H 18.085667 18.931811 -1.763584 0
M  V30 60 H 18.972689 18.569319 -0.349259 0
M  V30 61 H 15.887440 19.188291 1.836291 0
M  V30 62 H 16.927041 20.538425 1.700605 0
M  V30 63 H 22.226681 23.289307 -2.539257 0
M  V30 64 H 21.543452 18.339644 -2.538193 0
M  V30 65 H 22.687528 17.631317 -3.634284 0
M  V30 END ATOM
M  V30 BEGIN BOND
M  V30 1 1 7 1
M  V30 2 1 11 2
M  V30 3 1 12 8
M  V30 4 2 13 5
M  V30 5 1 14 2
M  V30 6 1 14 13
M  V30 7 1 16 7
M  V30 8 1 18 11
M  V30 9 2 19 4
M  V30 10 1 21 4
M  V30 11 2 21 7
M  V30 12 1 21 9
M  V30 13 1 22 6
M  V30 14 1 22 17
M  V30 15 1 23 12
M  V30 16 1 23 13
M  V30 17 1 23 15 CFG=3
M  V30 18 1 23 17
M  V30 19 2 24 16
M  V30 20 1 24 19
M  V30 21 1 25 4
M  V30 22 1 26 19
M  V30 23 1 27 9
M  V30 24 1 27 18
M  V30 25 1 28 3
M  V30 26 1 28 10
M  V30 27 1 28 22
M  V30 28 1 29 2
M  V30 29 1 29 20
M  V30 30 1 30 9
M  V30 31 1 30 20
M  V30 32 1 31 17
M  V30 33 1 32 12
M  V30 34 1 32 28
M  V30 35 1 2 33 CFG=3
M  V30 36 1 34 3
M  V30 37 1 35 3
M  V30 38 1 36 3
M  V30 39 1 37 8
M  V30 40 1 38 8
M  V30 41 1 39 8
M  V30 42 1 9 40 CFG=3
M  V30 43 1 41 10
M  V30 44 1 42 10
M  V30 45 1 43 10
M  V30 46 1 12 44 CFG=3
M  V30 47 1 45 14
M  V30 48 1 46 15
M  V30 49 1 47 15
M  V30 50 1 48 15
M  V30 51 1 49 16
M  V30 52 1 17 50 CFG=3
M  V30 53 1 51 18
M  V30 54 1 52 18
M  V30 55 1 53 20
M  V30 56 1 54 20
M  V30 57 1 22 55 CFG=1
M  V30 58 1 56 24
M  V30 59 1 57 27
M  V30 60 1 58 27
M  V30 61 1 59 29
M  V30 62 1 60 29
M  V30 63 1 61 30
M  V30 64 1 62 30
M  V30 65 1 63 31
M  V30 66 1 64 32
M  V30 67 1 65 32
M  V30 END BOND
M  V30 END CTAB
M  END
>  <i_epik_Tot_Q>  (1) 
-1

>  <i_epik_Tot_abs_Q>  (1) 
1

>  <i_i_glide_confnum>  (1) 
71

>  <i_i_glide_lignum>  (1) 
187

>  <i_i_glide_posenum>  (1) 
318

>  <i_i_glide_rotatable_bonds>  (1) 
5

>  <i_lp_mmshare_version>  (1) 
72125

>  <i_m_source_file_index>  (1) 
93

>  <i_f3d_flags>  (1) 
0

>  <num_sample>  (1) 
100

>  <b_lp_Chiralities_Consistent>  (1) 
1

>  <r_epik_Charging_Adjusted_Penalty>  (1) 
1.873832089241678

>  <r_epik_Ionization_Penalty>  (1) 
0.93691654502727262

>  <r_epik_Ionization_Penalty_Charging>  (1) 
0.93691604462083899

>  <r_epik_Ionization_Penalty_Neutral>  (1) 
5.0040643357861175e-07

>  <r_epik_State_Penalty>  (1) 
0.93691604462083899

>  <r_glide_ring_energy>  (1) 
0.24726830538804337

>  <r_i_docking_score>  (1) 
-1.3090293521813274

>  <r_i_glide_ecoul>  (1) 
-0.26139987441586765

>  <r_i_glide_eff_state_penalty>  (1) 
0.93691604462083899

>  <r_i_glide_einternal>  (1) 
8.8388987120625373

>  <r_i_glide_emodel>  (1) 
-20.964023593121919

>  <r_i_glide_emodel_strain>  (1) 
0

>  <r_i_glide_energy>  (1) 
-22.44029911951899

>  <r_i_glide_erotb>  (1) 
0.34068725043507714

>  <r_i_glide_esite>  (1) 
0

>  <r_i_glide_evdw>  (1) 
-22.178899245103121

>  <r_i_glide_gscore>  (1) 
-2.2459453968021665

>  <r_i_glide_gscore_strain>  (1) 
0

>  <r_i_glide_hbond>  (1) 
0

>  <r_i_glide_ligand_efficiency>  (1) 
-0.040907167255666482

>  <r_i_glide_ligand_efficiency_ln>  (1) 
-0.29312735474586638

>  <r_i_glide_ligand_efficiency_sa>  (1) 
-0.12987216066936813

>  <r_i_glide_lipo>  (1) 
-1.1308768249497874

>  <r_i_glide_metal>  (1) 
-0

>  <r_i_glide_rewards>  (1) 
-0.30760087886992032

>  <r_lp_Energy>  (1) 
80.447412999999997

>  <s_epik_Chemistry_Notes>  (1) 
This compound contains an acetal/aminal-like group ( X-CH(R)-Y where X, Y are N, S, or O) that may be acid/base labile, releasing an aldehyde.

>  <s_epik_cmdline>  (1) 
J2VwaWtfcHl0aG9uJywgJy1waHQnLCAnMS4wJywgJy1waCcsICc3LjQnLCAnLXRuJywgJzgnLCAnLW1hJywgJzUwMCcsICctaW1hZScsICc8aW5maWxlLm1hZT4nLCAnLW9tYWUnLCAnPG91dGZpbGUubWFlPic=

>  <s_epik_input>  (1) 
W09IXWMxYyhGKVtjSF1bY0hdYyhGKWMxW0NAQEhdKFtDSDJdW0NIMl1bQ0gyXTIpW0NIMl1bQ0gyXVNbQ0BIXTJbTkhdQyg9UylbQ0BdMyhbQ0gzXSlbQ0BIXShbQ0gzXSlbQ0gyXUMoW0NIM10pKFtDSDNdKVtDQEhdKEYpW0NAQEhdM1tPSF0=

>  <s_glide_docking_method>  (1) 
confgen

>  <s_i_glide_gridfile>  (1) 
gpcr_drd2_6luq_protein_autoprepared_prepared

>  <s_lp_Force_Field>  (1) 
S-OPLS

>  <s_lp_Variant>  (1) 
DiffSBDD_92_num_sample_100-2

>  <s_m_source_file>  (1) 
generated__ligand_DiffSBDD_2026-05-06_prepared.sdf

>  <GenAI_Model>  (1) 
DiffSBDD

>  <Protein>  (1) 
generic_title2

$$$$
DiffSBDD_67_num_sample_100
     RDKit          3D

  0  0  0  0  0  0  0  0  0  0999 V3000
M  V30 BEGIN CTAB
M  V30 COUNTS 79 83 0 0 1
M  V30 BEGIN ATOM
M  V30 1 C 9.443669 7.403319 -9.375683 0 CFG=2
M  V30 2 C 11.883505 7.511546 -8.778960 0 CFG=1
M  V30 3 C 13.177987 8.100642 -9.371736 0
M  V30 4 C 11.966714 7.225732 -7.267254 0 CFG=1
M  V30 5 C 9.012169 5.847261 -13.412608 0
M  V30 6 C 8.255034 5.956309 -11.086120 0
M  V30 7 C 7.033882 2.196177 -15.675143 0
M  V30 8 C 8.393448 1.364549 -17.525974 0
M  V30 9 C 10.587229 8.819506 -5.890543 0 CFG=2
M  V30 10 C 7.636213 3.694459 -19.159545 0
M  V30 11 C 9.158394 5.198738 -14.787829 0
M  V30 12 C 7.153840 0.954095 -15.026107 0
M  V30 13 C 8.409324 4.859316 -17.023707 0
M  V30 14 O 8.768486 3.923848 -19.643993 0 CHG=-1
M  V30 15 F 9.238275 -0.869147 -17.437794 0
M  V30 16 C 6.081378 5.965602 -14.335876 0
M  V30 17 O 6.605132 3.401093 -19.807420 0
M  V30 18 C 11.934517 8.562319 -6.495535 0
M  V30 19 C 9.429619 8.219249 -6.763363 0 CFG=2
M  V30 20 C 7.644338 2.409689 -16.930284 0
M  V30 21 C 9.528565 6.704461 -6.503236 0
M  V30 22 N 6.622476 6.401253 -13.018009 0 CFG=2 CHG=1
M  V30 23 C 7.009845 6.222606 -15.530215 0
M  V30 24 N 7.988234 5.144031 -15.646160 0
M  V30 25 C 10.955958 6.172335 -6.754191 0
M  V30 26 C 7.790265 5.597076 -12.532109 0 CFG=1
M  V30 27 C 8.384720 8.577647 -11.452357 0
M  V30 28 C 7.496192 3.780420 -17.630656 0 CFG=2
M  V30 29 O 10.635054 10.169479 -5.494177 0
M  V30 30 C 9.434524 8.519631 -8.294396 0 CFG=1
M  V30 31 C 10.649038 8.292705 -9.159092 0 CFG=2
M  V30 32 O 6.550832 0.755320 -13.814910 0
M  V30 33 C 7.893789 -0.080138 -15.622698 0
M  V30 34 C 5.501448 6.496107 -12.055813 0
M  V30 35 C 8.516188 0.124998 -16.870570 0
M  V30 36 C 9.034565 7.305998 -10.852176 0 CFG=1
M  V30 37 H 9.548780 6.393228 -9.000550 0
M  V30 38 H 11.780755 6.569226 -9.291731 0
M  V30 39 H 13.521216 8.973628 -8.825914 0
M  V30 40 H 13.994713 7.376546 -9.342290 0
M  V30 41 H 13.037762 8.385974 -10.415046 0
M  V30 42 H 12.900840 6.719348 -7.091654 0
M  V30 43 H 9.922364 5.565736 -12.882358 0
M  V30 44 H 9.033150 6.920226 -13.490607 0
M  V30 45 H 7.459655 5.808480 -10.355713 0
M  V30 46 H 8.953676 5.162611 -10.812476 0
M  V30 47 H 6.466961 2.987408 -15.213581 0
M  V30 48 H 8.875056 1.510232 -18.481759 0
M  V30 49 H 6.435986 -0.158219 -13.589314 0
M  V30 50 H 10.586811 8.295241 -4.935300 0
M  V30 51 H 9.486620 4.172369 -14.648106 0
M  V30 52 H 9.966514 5.710770 -15.313983 0
M  V30 53 H 9.430211 4.473072 -17.053083 0
M  V30 54 H 8.404301 5.774929 -17.617588 0
M  V30 55 H 5.766826 4.921594 -14.296033 0
M  V30 56 H 5.175848 6.538230 -14.539412 0
M  V30 57 H 12.634417 8.648875 -5.672257 0
M  V30 58 H 12.199367 9.389905 -7.150355 0
M  V30 59 H 8.472683 8.559290 -6.365407 0
M  V30 60 H 8.765440 6.150872 -7.051531 0
M  V30 61 H 9.290064 6.493681 -5.468331 0
M  V30 62 H 7.434441 7.220751 -15.486549 0
M  V30 63 H 6.386585 6.213800 -16.426913 0
M  V30 64 H 10.925580 5.336651 -7.450794 0
M  V30 65 H 11.338143 5.769167 -5.814319 0
M  V30 66 H 7.518983 4.538999 -12.550188 0
M  V30 67 H 7.298575 8.541901 -11.493873 0
M  V30 68 H 8.634030 9.441438 -10.849718 0
M  V30 69 H 8.741848 8.790747 -12.457129 0
M  V30 70 H 6.480640 4.134295 -17.497325 0
M  V30 71 H 9.874784 10.375264 -4.973289 0
M  V30 72 H 8.807840 9.369354 -8.539317 0
M  V30 73 H 10.828267 9.071895 -9.891987 0
M  V30 74 H 7.992863 -1.030157 -15.122010 0
M  V30 75 H 5.037769 5.519099 -11.904675 0
M  V30 76 H 5.790088 6.889994 -11.092190 0
M  V30 77 H 4.758543 7.202061 -12.426053 0
M  V30 78 H 9.989667 7.218975 -11.373715 0
M  V30 79 H 6.963658 7.346362 -13.126126 0
M  V30 END ATOM
M  V30 BEGIN BOND
M  V30 1 1 3 2
M  V30 2 1 4 2
M  V30 3 1 11 5
M  V30 4 2 12 7
M  V30 5 1 14 10
M  V30 6 2 17 10
M  V30 7 1 18 4
M  V30 8 1 18 9
M  V30 9 1 19 9
M  V30 10 1 20 7
M  V30 11 2 20 8
M  V30 12 1 21 19
M  V30 13 1 22 16
M  V30 14 1 23 16
M  V30 15 1 24 11
M  V30 16 1 24 13
M  V30 17 1 24 23
M  V30 18 1 25 4
M  V30 19 1 25 21
M  V30 20 1 26 5
M  V30 21 1 26 6
M  V30 22 1 26 22
M  V30 23 1 28 10
M  V30 24 1 28 13
M  V30 25 1 28 20
M  V30 26 1 29 9
M  V30 27 1 30 1
M  V30 28 1 30 19
M  V30 29 1 31 1
M  V30 30 1 31 2
M  V30 31 1 31 30
M  V30 32 1 32 12
M  V30 33 1 33 12
M  V30 34 1 34 22
M  V30 35 1 35 8
M  V30 36 1 35 15
M  V30 37 2 35 33
M  V30 38 1 36 1
M  V30 39 1 36 6
M  V30 40 1 36 27
M  V30 41 1 1 37 CFG=1
M  V30 42 1 2 38 CFG=3
M  V30 43 1 39 3
M  V30 44 1 40 3
M  V30 45 1 41 3
M  V30 46 1 4 42 CFG=3
M  V30 47 1 43 5
M  V30 48 1 44 5
M  V30 49 1 45 6
M  V30 50 1 46 6
M  V30 51 1 47 7
M  V30 52 1 48 8
M  V30 53 1 49 32
M  V30 54 1 9 50 CFG=1
M  V30 55 1 51 11
M  V30 56 1 52 11
M  V30 57 1 53 13
M  V30 58 1 54 13
M  V30 59 1 55 16
M  V30 60 1 56 16
M  V30 61 1 57 18
M  V30 62 1 58 18
M  V30 63 1 19 59 CFG=1
M  V30 64 1 60 21
M  V30 65 1 61 21
M  V30 66 1 62 23
M  V30 67 1 63 23
M  V30 68 1 64 25
M  V30 69 1 65 25
M  V30 70 1 26 66 CFG=1
M  V30 71 1 67 27
M  V30 72 1 68 27
M  V30 73 1 69 27
M  V30 74 1 28 70 CFG=3
M  V30 75 1 71 29
M  V30 76 1 30 72 CFG=3
M  V30 77 1 31 73 CFG=3
M  V30 78 1 74 33
M  V30 79 1 75 34
M  V30 80 1 76 34
M  V30 81 1 77 34
M  V30 82 1 36 78 CFG=3
M  V30 83 1 22 79 CFG=3
M  V30 END BOND
M  V30 END CTAB
M  END
>  <i_epik_Tot_Q>  (1) 
0

>  <i_epik_Tot_abs_Q>  (1) 
2

>  <i_i_glide_confnum>  (1) 
568

>  <i_i_glide_lignum>  (1) 
136

>  <i_i_glide_posenum>  (1) 
201

>  <i_i_glide_rotatable_bonds>  (1) 
9

>  <i_lp_mmshare_version>  (1) 
72125

>  <i_m_source_file_index>  (1) 
68

>  <i_f3d_flags>  (1) 
0

>  <num_sample>  (1) 
100

>  <b_lp_Chiralities_Consistent>  (1) 
1

>  <r_epik_Charging_Adjusted_Penalty>  (1) 
1.0015811376701689

>  <r_epik_Ionization_Penalty>  (1) 
0.014205467742633596

>  <r_epik_Ionization_Penalty_Charging>  (1) 
0.0035901324651834211

>  <r_epik_Ionization_Penalty_Neutral>  (1) 
0.010615335277450176

>  <r_epik_State_Penalty>  (1) 
0.99799100520498552

>  <r_glide_ring_energy>  (1) 
0.19911974857502149

>  <r_i_docking_score>  (1) 
-1.1979833956928152

>  <r_i_glide_ecoul>  (1) 
-1.4521720689361479

>  <r_i_glide_eff_state_penalty>  (1) 
0.99799100520498552

>  <r_i_glide_einternal>  (1) 
44.660952146897188

>  <r_i_glide_emodel>  (1) 
10.378255927306832

>  <r_i_glide_emodel_strain>  (1) 
8.887299288806787

>  <r_i_glide_energy>  (1) 
-18.961396442328489

>  <r_i_glide_erotb>  (1) 
0.48522832276191719

>  <r_i_glide_esite>  (1) 
0

>  <r_i_glide_evdw>  (1) 
-17.509224373392342

>  <r_i_glide_gscore>  (1) 
-2.1959744008978008

>  <r_i_glide_gscore_strain>  (1) 
1.2218248222016967

>  <r_i_glide_hbond>  (1) 
0

>  <r_i_glide_ligand_efficiency>  (1) 
-0.033277316547022644

>  <r_i_glide_ligand_efficiency_ln>  (1) 
-0.26136761116914642

>  <r_i_glide_ligand_efficiency_sa>  (1) 
-0.10987927827670614

>  <r_i_glide_lipo>  (1) 
-1.7085279560839557

>  <r_i_glide_metal>  (1) 
-0

>  <r_i_glide_rewards>  (1) 
-1.1012125607674195

>  <r_lp_Energy>  (1) 
48.874657999999997

>  <s_epik_cmdline>  (1) 
J2VwaWtfcHl0aG9uJywgJy1waHQnLCAnMS4wJywgJy1waCcsICc3LjQnLCAnLXRuJywgJzgnLCAnLW1hJywgJzUwMCcsICctaW1hZScsICc8aW5maWxlLm1hZT4nLCAnLW9tYWUnLCAnPG91dGZpbGUubWFlPic=

>  <s_epik_input>  (1) 
W0NIM11bQ0BASF0oW0NAQEhdMTIpW0NAQEhdM1tDQEhdKFtDQEhdKFtDQEBIXShbQ0gyXTEpW09IXSlbQ0gyXVtDSDJdMilbQ0BIXTNbQ0BIXShbQ0gzXSlbQ0gyXVtDQEBIXTRbQ0gyXVtDSDJdTihbQ0gyXVtDSDJdTjRbQ0gzXSlbQ0gyXVtDQEBIXShDKD1PKVtPSF0pQyg9W0NIXUM1PU8pW0NIMl1DKEYpPVtDSF01

>  <s_glide_docking_method>  (1) 
confgen

>  <s_i_glide_gridfile>  (1) 
gpcr_drd2_6luq_protein_autoprepared_prepared

>  <s_lp_Force_Field>  (1) 
S-OPLS

>  <s_lp_Variant>  (1) 
DiffSBDD_67_num_sample_100-4

>  <s_m_source_file>  (1) 
generated__ligand_DiffSBDD_2026-05-06_prepared.sdf

>  <GenAI_Model>  (1) 
DiffSBDD

>  <Protein>  (1) 
generic_title2

$$$$
DiffSBDD_64_num_sample_100
     RDKit          3D

  0  0  0  0  0  0  0  0  0  0999 V3000
M  V30 BEGIN CTAB
M  V30 COUNTS 76 80 0 0 1
M  V30 BEGIN ATOM
M  V30 1 N 23.057337 9.487593 -20.926846 0
M  V30 2 C 21.592710 11.326432 -20.633171 0 CFG=1
M  V30 3 C 18.928260 7.225498 -22.598951 0
M  V30 4 C 14.008706 8.593147 -19.149120 0
M  V30 5 C 22.613954 12.465562 -20.648135 0
M  V30 6 C 21.959065 13.481570 -21.581950 0
M  V30 7 C 16.789992 9.011932 -20.291221 0 CFG=1
M  V30 8 O 18.174477 9.223609 -20.351241 0
M  V30 9 O 19.715049 10.892385 -22.118400 0
M  V30 10 C 16.988725 5.879930 -21.550841 0
M  V30 11 C 15.302185 7.882324 -18.669425 0
M  V30 12 C 23.670236 8.429448 -20.132541 0
M  V30 13 F 22.842750 14.340902 -22.088596 0
M  V30 14 C 16.039907 9.476760 -21.548197 0 CFG=2
M  V30 15 O 16.645584 5.012763 -22.357961 0
M  V30 16 C 21.093219 11.216498 -22.092724 0 CFG=1
M  V30 17 O 18.634923 5.326632 -19.209662 0
M  V30 18 C 19.270067 6.231053 -20.102187 0 CFG=2
M  V30 19 C 22.626428 7.429481 -19.609000 0
M  V30 20 C 20.985283 4.373899 -20.779910 0
M  V30 21 C 21.269147 12.645259 -22.671857 0
M  V30 22 C 21.782374 6.816984 -20.740733 0 CFG=1
M  V30 23 C 18.496206 6.260839 -21.465516 0 CFG=2
M  V30 24 C 22.325168 8.933178 -22.072025 0 CFG=2
M  V30 25 C 20.761811 5.778068 -20.172384 0 CFG=1
M  V30 26 C 20.441029 7.329618 -22.836851 0
M  V30 27 O 16.484866 10.775739 -21.891628 0
M  V30 28 O 14.234838 9.769301 -19.922105 0
M  V30 29 C 16.407330 7.601971 -19.734229 0 CFG=1
M  V30 30 O 22.080225 10.114631 -20.054435 0
M  V30 31 C 21.898706 10.170132 -22.895067 0
M  V30 32 C 14.521674 9.560372 -21.305587 0
M  V30 33 N 16.073825 6.495130 -20.721526 0
M  V30 34 F 21.034937 14.160690 -20.900572 0
M  V30 35 C 14.675067 6.013148 -20.748237 0
M  V30 36 C 21.198707 7.942122 -21.637489 0 CFG=1
M  V30 37 H 20.764016 11.653384 -20.003297 0
M  V30 38 H 18.521682 8.222261 -22.480528 0
M  V30 39 H 18.479470 6.876638 -23.530596 0
M  V30 40 H 13.306084 7.936658 -19.657453 0
M  V30 41 H 13.477057 8.904276 -18.252255 0
M  V30 42 H 23.561633 12.129142 -21.070109 0
M  V30 43 H 22.813690 12.867458 -19.654603 0
M  V30 44 H 16.573368 9.754250 -19.521454 0
M  V30 45 H 18.340404 9.979858 -20.906092 0
M  V30 46 H 19.406840 10.925067 -23.012038 0
M  V30 47 H 15.051103 6.973373 -18.122806 0
M  V30 48 H 15.738919 8.516168 -17.895505 0
M  V30 49 H 24.411718 7.911925 -20.742219 0
M  V30 50 H 24.210282 8.877601 -19.297980 0
M  V30 51 H 16.247796 8.823345 -22.395356 0
M  V30 52 H 17.759734 5.636146 -19.035379 0
M  V30 53 H 19.276655 7.200869 -19.616716 0
M  V30 54 H 23.158994 6.633220 -19.091662 0
M  V30 55 H 21.979911 7.904233 -18.869659 0
M  V30 56 H 20.851874 4.361315 -21.860603 0
M  V30 57 H 21.999011 4.025431 -20.581243 0
M  V30 58 H 20.306787 3.636372 -20.351295 0
M  V30 59 H 21.885190 12.627957 -23.571551 0
M  V30 60 H 20.323578 13.104922 -22.964548 0
M  V30 61 H 22.495022 6.269607 -21.360089 0
M  V30 62 H 18.869217 5.330428 -21.887074 0
M  V30 63 H 23.040194 8.374929 -22.678028 0
M  V30 64 H 21.034843 5.644594 -19.124742 0
M  V30 65 H 20.579932 7.928808 -23.732829 0
M  V30 66 H 20.853020 6.355828 -23.100911 0
M  V30 67 H 16.005170 11.395227 -21.358031 0
M  V30 68 H 17.207001 7.277126 -19.087062 0
M  V30 69 H 21.377464 9.904936 -23.812411 0
M  V30 70 H 22.826384 10.633242 -23.235333 0
M  V30 71 H 14.009485 8.682298 -21.684435 0
M  V30 72 H 14.095636 10.374092 -21.891635 0
M  V30 73 H 14.591388 5.003799 -21.152588 0
M  V30 74 H 14.215291 5.902467 -19.770630 0
M  V30 75 H 14.043266 6.622022 -21.386402 0
M  V30 76 H 20.494308 8.518827 -21.045814 0
M  V30 END ATOM
M  V30 BEGIN BOND
M  V30 1 1 5 2
M  V30 2 1 6 5
M  V30 3 1 8 7
M  V30 4 1 11 4
M  V30 5 1 12 1
M  V30 6 1 13 6
M  V30 7 1 14 7
M  V30 8 2 15 10
M  V30 9 1 16 2
M  V30 10 1 16 9 CFG=1
M  V30 11 1 18 17
M  V30 12 1 19 12
M  V30 13 1 21 6
M  V30 14 1 21 16
M  V30 15 1 22 19
M  V30 16 1 23 3
M  V30 17 1 23 10
M  V30 18 1 23 18
M  V30 19 1 24 1
M  V30 20 1 25 18
M  V30 21 1 25 20
M  V30 22 1 25 22
M  V30 23 1 26 3
M  V30 24 1 27 14
M  V30 25 1 28 4
M  V30 26 1 29 7
M  V30 27 1 29 11
M  V30 28 1 30 1
M  V30 29 1 30 2
M  V30 30 1 31 16
M  V30 31 1 31 24
M  V30 32 1 32 14
M  V30 33 1 32 28
M  V30 34 1 33 10
M  V30 35 1 33 29
M  V30 36 1 34 6
M  V30 37 1 35 33
M  V30 38 1 36 22
M  V30 39 1 36 24
M  V30 40 1 36 26
M  V30 41 1 2 37 CFG=1
M  V30 42 1 38 3
M  V30 43 1 39 3
M  V30 44 1 40 4
M  V30 45 1 41 4
M  V30 46 1 42 5
M  V30 47 1 43 5
M  V30 48 1 7 44 CFG=1
M  V30 49 1 45 8
M  V30 50 1 46 9
M  V30 51 1 47 11
M  V30 52 1 48 11
M  V30 53 1 49 12
M  V30 54 1 50 12
M  V30 55 1 14 51 CFG=3
M  V30 56 1 52 17
M  V30 57 1 18 53 CFG=1
M  V30 58 1 54 19
M  V30 59 1 55 19
M  V30 60 1 56 20
M  V30 61 1 57 20
M  V30 62 1 58 20
M  V30 63 1 59 21
M  V30 64 1 60 21
M  V30 65 1 22 61 CFG=3
M  V30 66 1 23 62 CFG=3
M  V30 67 1 24 63 CFG=3
M  V30 68 1 25 64 CFG=1
M  V30 69 1 65 26
M  V30 70 1 66 26
M  V30 71 1 67 27
M  V30 72 1 29 68 CFG=1
M  V30 73 1 69 31
M  V30 74 1 70 31
M  V30 75 1 71 32
M  V30 76 1 72 32
M  V30 77 1 73 35
M  V30 78 1 74 35
M  V30 79 1 75 35
M  V30 80 1 36 76 CFG=1
M  V30 END BOND
M  V30 END CTAB
M  END
>  <i_epik_Tot_Q>  (1) 
0

>  <i_epik_Tot_abs_Q>  (1) 
0

>  <i_i_glide_confnum>  (1) 
20

>  <i_i_glide_lignum>  (1) 
127

>  <i_i_glide_posenum>  (1) 
211

>  <i_i_glide_rotatable_bonds>  (1) 
7

>  <i_lp_mmshare_version>  (1) 
72125

>  <i_m_source_file_index>  (1) 
65

>  <i_f3d_flags>  (1) 
0

>  <num_sample>  (1) 
100

>  <b_lp_Chiralities_Consistent>  (1) 
1

>  <r_epik_Charging_Adjusted_Penalty>  (1) 
0.0074276549920260261

>  <r_epik_Ionization_Penalty>  (1) 
0.0074281302473017232

>  <r_epik_Ionization_Penalty_Charging>  (1) 
0

>  <r_epik_Ionization_Penalty_Neutral>  (1) 
0.0074281302473017232

>  <r_epik_State_Penalty>  (1) 
0.0074276549920260261

>  <r_glide_ring_energy>  (1) 
0.23075148283813565

>  <r_i_docking_score>  (1) 
-1.1926675491705387

>  <r_i_glide_ecoul>  (1) 
-2.2242471916336557

>  <r_i_glide_eff_state_penalty>  (1) 
0.0074276549920260261

>  <r_i_glide_einternal>  (1) 
21.030194980563643

>  <r_i_glide_emodel>  (1) 
-8.2625017016409288

>  <r_i_glide_emodel_strain>  (1) 
0.57381389805377125

>  <r_i_glide_energy>  (1) 
-18.23424366922691

>  <r_i_glide_erotb>  (1) 
0.22910757355035372

>  <r_i_glide_esite>  (1) 
0

>  <r_i_glide_evdw>  (1) 
-16.009996477593255

>  <r_i_glide_gscore>  (1) 
-1.2000952041625648

>  <r_i_glide_gscore_strain>  (1) 
0

>  <r_i_glide_hbond>  (1) 
0

>  <r_i_glide_ligand_efficiency>  (1) 
-0.033129654143626078

>  <r_i_glide_ligand_efficiency_ln>  (1) 
-0.26020783707556167

>  <r_i_glide_ligand_efficiency_sa>  (1) 
-0.10939170776329374

>  <r_i_glide_lipo>  (1) 
-0.2240986541100862

>  <r_i_glide_metal>  (1) 
-0

>  <r_i_glide_rewards>  (1) 
-0.070967220978121151

>  <r_lp_Energy>  (1) 
55.332492999999999

>  <s_epik_Chemistry_Notes>  (1) 
This compound has a N-S or N-O group and may undergo hydrolysis at high or low pH.

>  <s_epik_cmdline>  (1) 
J2VwaWtfcHl0aG9uJywgJy1waHQnLCAnMS4wJywgJy1waCcsICc3LjQnLCAnLXRuJywgJzgnLCAnLW1hJywgJzUwMCcsICctaW1hZScsICc8aW5maWxlLm1hZT4nLCAnLW9tYWUnLCAnPG91dGZpbGUubWFlPic=

>  <s_epik_input>  (1) 
RkMoRikoW0NIMl0xKVtDSDJdW0NAQEhdKFtDQEBdMTJbT0hdKU9OM1tDQEhdKFtDSDJdMilbQ0BASF00W0NAQEhdKFtDSDJdW0NIMl0zKVtDQEhdKFtDSDNdKVtDQEhdKFtPSF0pW0NASF0oW0NIMl1bQ0gyXTQpQyg9TylOKFtDSDNdKVtDQEBIXTVbQ0gyXVtDSDJdT1tDSDJdW0NAQEhdKFtPSF0pW0NAQEhdNVtPSF0=

>  <s_glide_docking_method>  (1) 
confgen

>  <s_i_glide_gridfile>  (1) 
gpcr_drd2_6luq_protein_autoprepared_prepared

>  <s_lp_Force_Field>  (1) 
S-OPLS

>  <s_lp_Variant>  (1) 
DiffSBDD_64_num_sample_100-1

>  <s_m_source_file>  (1) 
generated__ligand_DiffSBDD_2026-05-06_prepared.sdf

>  <GenAI_Model>  (1) 
DiffSBDD

>  <Protein>  (1) 
generic_title2

$$$$
DiffSBDD_89_num_sample_100
     RDKit          3D

  0  0  0  0  0  0  0  0  0  0999 V3000
M  V30 BEGIN CTAB
M  V30 COUNTS 74 79 0 0 1
M  V30 BEGIN ATOM
M  V30 1 C 18.479136 6.226900 -21.645196 0
M  V30 2 C 18.166892 8.646705 -20.662047 0
M  V30 3 C 17.568388 7.447612 -21.439984 0
M  V30 4 C 17.607737 6.398992 -18.547429 0
M  V30 5 C 19.805436 9.548900 -19.102480 0 CFG=1
M  V30 6 C 22.931311 10.447180 -21.026623 0 CFG=2
M  V30 7 C 16.268868 1.096719 -19.981108 0
M  V30 8 C 21.318585 9.540075 -19.065559 0 CFG=2
M  V30 9 C 16.723561 -0.302423 -20.348193 0
M  V30 10 C 14.926923 2.571226 -18.572253 0
M  V30 11 C 22.301810 10.556218 -18.491387 0
M  V30 12 C 19.060195 10.393689 -18.065944 0
M  V30 13 C 17.737795 2.026560 -21.847640 0
M  V30 14 C 23.731219 9.134200 -21.037913 0
M  V30 15 C 15.415344 3.691041 -19.269983 0
M  V30 16 C 20.575073 10.340167 -20.151519 0 CFG=1
M  V30 17 C 24.129526 6.868693 -20.020530 0
M  V30 18 C 18.316770 7.748550 -18.366469 0
M  V30 19 C 16.761025 2.220829 -20.692754 0
M  V30 20 C 22.029983 8.185184 -19.326270 0
M  V30 21 C 18.843763 5.867341 -23.076223 0
M  V30 22 C 18.436403 5.304162 -19.225039 0
M  V30 23 C 18.142612 5.055271 -20.719995 0 CFG=1
M  V30 24 C 19.897647 6.400498 -22.154587 0
M  V30 25 C 23.515091 8.255894 -19.789207 0 CFG=2
M  V30 26 N 19.033500 8.336705 -19.515348 0
M  V30 27 C 23.106886 11.204127 -19.663604 0
M  V30 28 C 21.434840 10.165567 -21.382739 0
M  V30 29 O 16.801155 4.633530 -20.995899 0
M  V30 30 C 16.334461 3.525397 -20.325831 0
M  V30 31 C 15.353285 1.278043 -18.924471 0
M  V30 32 H 17.368930 9.321943 -20.351544 0
M  V30 33 H 18.750786 9.200958 -21.394995 0
M  V30 34 H 16.615552 7.142725 -21.015204 0
M  V30 35 H 17.281604 7.823416 -22.422239 0
M  V30 36 H 16.634532 6.517331 -19.016123 0
M  V30 37 H 17.361427 6.050078 -17.544143 0
M  V30 38 H 23.345167 11.072796 -21.818743 0
M  V30 39 H 16.305971 -1.030719 -19.656445 0
M  V30 40 H 16.395412 -0.571496 -21.352141 0
M  V30 41 H 17.809625 -0.377142 -20.291630 0
M  V30 42 H 14.223871 2.704947 -17.763115 0
M  V30 43 H 22.957716 10.080621 -17.763801 0
M  V30 44 H 21.770419 11.327952 -17.935960 0
M  V30 45 H 19.525007 11.369346 -17.935504 0
M  V30 46 H 18.037085 10.568362 -18.384433 0
M  V30 47 H 19.059805 9.916245 -17.086982 0
M  V30 48 H 17.485296 1.151930 -22.445620 0
M  V30 49 H 17.722033 2.871463 -22.534459 0
M  V30 50 H 18.753566 1.900233 -21.472424 0
M  V30 51 H 23.489020 8.570001 -21.939692 0
M  V30 52 H 24.794224 9.366254 -21.118828 0
M  V30 53 H 15.085360 4.681612 -18.994850 0
M  V30 54 H 20.408005 11.405234 -20.003945 0
M  V30 55 H 23.536384 6.275772 -20.717283 0
M  V30 56 H 25.133204 6.969358 -20.434038 0
M  V30 57 H 24.227555 6.309163 -19.091671 0
M  V30 58 H 17.552937 8.435132 -18.002948 0
M  V30 59 H 19.034875 7.628024 -17.556755 0
M  V30 60 H 21.969820 7.603563 -18.410247 0
M  V30 61 H 21.466825 7.615052 -20.063822 0
M  V30 62 H 18.905622 4.815271 -23.345043 0
M  V30 63 H 18.501203 6.525450 -23.869648 0
M  V30 64 H 18.235162 4.375766 -18.691662 0
M  V30 65 H 19.500485 5.503013 -19.091772 0
M  V30 66 H 18.812301 4.245147 -21.003833 0
M  V30 67 H 20.250153 7.402940 -22.365446 0
M  V30 68 H 20.653344 5.708124 -21.788521 0
M  V30 69 H 24.108045 8.688177 -18.984009 0
M  V30 70 H 24.161613 11.283451 -19.398794 0
M  V30 71 H 22.760987 12.230204 -19.794425 0
M  V30 72 H 21.288401 9.182223 -21.817843 0
M  V30 73 H 21.094303 10.879801 -22.132675 0
M  V30 74 H 14.976472 0.421966 -18.383173 0
M  V30 END ATOM
M  V30 BEGIN BOND
M  V30 1 1 3 1
M  V30 2 1 3 2
M  V30 3 1 8 5
M  V30 4 1 9 7
M  V30 5 1 8 11 CFG=1
M  V30 6 1 5 12 CFG=1
M  V30 7 1 14 6
M  V30 8 1 15 10
M  V30 9 1 16 5
M  V30 10 1 16 8
M  V30 11 1 18 4
M  V30 12 2 19 7
M  V30 13 1 19 13
M  V30 14 1 20 8
M  V30 15 1 21 1
M  V30 16 1 22 4
M  V30 17 1 23 1
M  V30 18 1 23 22
M  V30 19 1 24 1
M  V30 20 1 24 21
M  V30 21 1 25 14
M  V30 22 1 25 17
M  V30 23 1 25 20
M  V30 24 1 26 2
M  V30 25 1 26 5
M  V30 26 1 26 18
M  V30 27 1 27 6
M  V30 28 1 27 11
M  V30 29 1 28 6
M  V30 30 1 28 16
M  V30 31 1 29 23
M  V30 32 2 30 15
M  V30 33 1 30 19
M  V30 34 1 30 29
M  V30 35 1 31 7
M  V30 36 2 31 10
M  V30 37 1 32 2
M  V30 38 1 33 2
M  V30 39 1 34 3
M  V30 40 1 35 3
M  V30 41 1 36 4
M  V30 42 1 37 4
M  V30 43 1 6 38 CFG=3
M  V30 44 1 39 9
M  V30 45 1 40 9
M  V30 46 1 41 9
M  V30 47 1 42 10
M  V30 48 1 43 11
M  V30 49 1 44 11
M  V30 50 1 45 12
M  V30 51 1 46 12
M  V30 52 1 47 12
M  V30 53 1 48 13
M  V30 54 1 49 13
M  V30 55 1 50 13
M  V30 56 1 51 14
M  V30 57 1 52 14
M  V30 58 1 53 15
M  V30 59 1 16 54 CFG=1
M  V30 60 1 55 17
M  V30 61 1 56 17
M  V30 62 1 57 17
M  V30 63 1 58 18
M  V30 64 1 59 18
M  V30 65 1 60 20
M  V30 66 1 61 20
M  V30 67 1 62 21
M  V30 68 1 63 21
M  V30 69 1 64 22
M  V30 70 1 65 22
M  V30 71 1 23 66 CFG=3
M  V30 72 1 67 24
M  V30 73 1 68 24
M  V30 74 1 25 69 CFG=1
M  V30 75 1 70 27
M  V30 76 1 71 27
M  V30 77 1 72 28
M  V30 78 1 73 28
M  V30 79 1 74 31
M  V30 END BOND
M  V30 END CTAB
M  END
>  <i_epik_Tot_Q>  (1) 
0

>  <i_epik_Tot_abs_Q>  (1) 
0

>  <i_i_glide_confnum>  (1) 
106

>  <i_i_glide_lignum>  (1) 
180

>  <i_i_glide_posenum>  (1) 
123

>  <i_i_glide_rotatable_bonds>  (1) 
3

>  <i_lp_mmshare_version>  (1) 
72125

>  <i_m_source_file_index>  (1) 
90

>  <i_f3d_flags>  (1) 
0

>  <num_sample>  (1) 
100

>  <b_lp_Chiralities_Consistent>  (1) 
1

>  <r_epik_Charging_Adjusted_Penalty>  (1) 
1.2690052337476654

>  <r_epik_Ionization_Penalty>  (1) 
1.2690052337476654

>  <r_epik_Ionization_Penalty_Charging>  (1) 
0

>  <r_epik_Ionization_Penalty_Neutral>  (1) 
1.2690052337476654

>  <r_epik_State_Penalty>  (1) 
1.2690052337476654

>  <r_glide_ring_energy>  (1) 
2.3444449692425784

>  <r_i_docking_score>  (1) 
-1.1689344378660482

>  <r_i_glide_ecoul>  (1) 
-0.68647069599084198

>  <r_i_glide_eff_state_penalty>  (1) 
1.2690052337476654

>  <r_i_glide_einternal>  (1) 
28.026114469830055

>  <r_i_glide_emodel>  (1) 
-7.0861641136600291

>  <r_i_glide_emodel_strain>  (1) 
0.97270947932648255

>  <r_i_glide_energy>  (1) 
-19.611434282270263

>  <r_i_glide_erotb>  (1) 
0.33412944557780477

>  <r_i_glide_esite>  (1) 
0

>  <r_i_glide_evdw>  (1) 
-18.924963586279421

>  <r_i_glide_gscore>  (1) 
-2.4379396716137136

>  <r_i_glide_gscore_strain>  (1) 
0

>  <r_i_glide_hbond>  (1) 
0

>  <r_i_glide_ligand_efficiency>  (1) 
-0.037707562511808006

>  <r_i_glide_ligand_efficiency_ln>  (1) 
-0.26363053927707025

>  <r_i_glide_ligand_efficiency_sa>  (1) 
-0.11845380732343269

>  <r_i_glide_lipo>  (1) 
-1.1887968789334649

>  <r_i_glide_metal>  (1) 
-0

>  <r_i_glide_rewards>  (1) 
-0.53405345454545594

>  <r_lp_Energy>  (1) 
72.584220999999999

>  <r_lp_tautomer_probability>  (1) 
1

>  <s_epik_cmdline>  (1) 
J2VwaWtfcHl0aG9uJywgJy1waHQnLCAnMS4wJywgJy1waCcsICc3LjQnLCAnLXRuJywgJzgnLCAnLW1hJywgJzUwMCcsICctaW1hZScsICc8aW5maWxlLm1hZT4nLCAnLW9tYWUnLCAnPG91dGZpbGUubWFlPic=

>  <s_epik_input>  (1) 
W0NIM11bQ0BIXShbQ0gyXTEpW0NIMl1bQ0BIXShbQ0gyXVtDSDJdMilbQ0gyXVtDQEhdKFtDQEBdMTIzKVtDQEBdMyhbQ0gzXSlOKFtDSDJdW0NIMl1DNDVbQ0gyXVtDSDJdNSlbQ0gyXVtDSDJdW0NIMl1bQ0BIXTRPYyhbY0hdW2NIXVtjSF02KWMoW0NIM10pYzZbQ0gzXQ==

>  <s_glide_docking_method>  (1) 
confgen

>  <s_i_glide_gridfile>  (1) 
gpcr_drd2_6luq_protein_autoprepared_prepared

>  <s_lp_Force_Field>  (1) 
S-OPLS

>  <s_lp_Variant>  (1) 
DiffSBDD_89_num_sample_100-2

>  <s_m_source_file>  (1) 
generated__ligand_DiffSBDD_2026-05-06_prepared.sdf

>  <GenAI_Model>  (1) 
DiffSBDD

>  <Protein>  (1) 
generic_title2

$$$$
DiffSBDD_13_num_sample_100
     RDKit          3D

  0  0  0  0  0  0  0  0  0  0999 V3000
M  V30 BEGIN CTAB
M  V30 COUNTS 83 88 0 0 1
M  V30 BEGIN ATOM
M  V30 1 C 20.941998 8.496131 -21.630818 0
M  V30 2 C 21.018588 7.764651 -19.126366 0
M  V30 3 C 8.252081 4.436396 -18.547647 0
M  V30 4 F 22.853702 9.680936 -22.484210 0
M  V30 5 O 19.827483 12.347620 -22.687820 0 CHG=-1
M  V30 6 C 11.855607 4.155405 -21.106463 0 CFG=2
M  V30 7 C 19.710323 7.741431 -21.893327 0
M  V30 8 F 21.681813 8.500666 -23.851773 0
M  V30 9 C 19.175845 6.875224 -21.080378 0
M  V30 10 C 13.023820 4.857163 -18.828217 0
M  V30 11 C 16.409222 6.175834 -18.218086 0
M  V30 12 C 15.853438 6.324731 -20.600221 0 CFG=1
M  V30 13 C 15.337144 5.904477 -19.256964 0 CFG=2
M  V30 14 O 13.537947 6.097770 -22.182511 0
M  V30 15 C 8.373849 3.309614 -19.585281 0 CFG=1
M  V30 16 C 21.575995 9.308274 -22.765957 0
M  V30 17 C 20.554721 11.437635 -22.294562 0
M  V30 18 C 21.538366 8.478796 -20.395079 0
M  V30 19 O 15.026719 3.556230 -18.855514 0
M  V30 20 C 13.185182 6.459297 -20.856721 0 CFG=1
M  V30 21 O 20.829964 10.396282 -23.122294 0
M  V30 22 C 11.762884 1.923577 -19.511515 0
M  V30 23 C 17.580292 5.160513 -18.316665 0
M  V30 24 C 10.607060 2.234956 -18.540496 0
M  V30 25 C 16.312937 5.188225 -21.484329 0
M  V30 26 C 12.295401 7.719364 -21.030908 0
M  V30 27 O 21.034439 11.473033 -21.160128 0
M  V30 28 C 18.328093 4.988293 -19.682938 0 CFG=1
M  V30 29 C 11.658496 2.664370 -20.825378 0 CFG=2
M  V30 30 C 8.526061 3.772358 -21.066872 0
M  V30 31 O 12.947488 8.669025 -21.848095 0
M  V30 32 C 12.360412 5.295708 -20.152003 0 CFG=1
M  V30 33 C 9.186693 2.057662 -19.130118 0
M  V30 34 C 20.508408 6.300729 -19.140039 0
M  V30 35 C 17.497446 4.393618 -20.872719 0
M  V30 36 O 9.220455 5.131428 -18.246280 0
M  V30 37 C 19.298949 6.128749 -20.021748 0
M  V30 38 C 14.506632 6.852757 -20.132892 0 CFG=2
M  V30 39 C 14.519392 4.669382 -18.970960 0
M  V30 40 C 9.410267 4.987679 -21.449559 0
M  V30 41 C 10.790029 4.678579 -22.073705 0
M  V30 42 C 12.866355 3.118707 -21.592138 0
M  V30 43 H 21.851294 7.799403 -18.425422 0
M  V30 44 H 20.249336 8.401985 -18.686928 0
M  V30 45 H 7.261906 4.566626 -18.112896 0
M  V30 46 H 19.230685 7.914421 -22.845521 0
M  V30 47 H 12.576627 3.992268 -18.365050 0
M  V30 48 H 12.880298 5.658877 -18.103366 0
M  V30 49 H 15.955616 6.121438 -17.228493 0
M  V30 50 H 16.786170 7.194757 -18.324779 0
M  V30 51 H 16.562056 7.146180 -20.636029 0
M  V30 52 H 14.019383 5.282943 -22.151126 0
M  V30 53 H 7.353015 2.925183 -19.577050 0
M  V30 54 H 22.443882 9.049792 -20.256414 0
M  V30 55 H 12.737540 2.081074 -19.052471 0
M  V30 56 H 11.741376 0.857764 -19.741383 0
M  V30 57 H 18.289392 5.406170 -17.529137 0
M  V30 58 H 17.203470 4.182558 -18.029338 0
M  V30 59 H 10.711431 1.547954 -17.697741 0
M  V30 60 H 10.724542 3.215574 -18.092433 0
M  V30 61 H 15.497965 4.499427 -21.690854 0
M  V30 62 H 16.605146 5.618409 -22.443245 0
M  V30 63 H 11.339303 7.491719 -21.500171 0
M  V30 64 H 12.069880 8.175943 -20.065242 0
M  V30 65 H 19.026647 4.174290 -19.486326 0
M  V30 66 H 10.910514 2.185422 -21.452514 0
M  V30 67 H 8.763992 2.920407 -21.703039 0
M  V30 68 H 7.517827 4.051097 -21.377242 0
M  V30 69 H 13.756643 8.256891 -22.150341 0
M  V30 70 H 11.452487 5.763576 -19.775294 0
M  V30 71 H 9.212219 1.314854 -19.930080 0
M  V30 72 H 8.591418 1.577113 -18.352523 0
M  V30 73 H 21.294734 5.636693 -19.492065 0
M  V30 74 H 20.272017 5.995205 -18.124603 0
M  V30 75 H 17.104552 3.429759 -20.545391 0
M  V30 76 H 18.185753 4.141986 -21.681334 0
M  V30 77 H 14.496413 7.878188 -19.760152 0
M  V30 78 H 8.860438 5.517201 -22.229767 0
M  V30 79 H 9.477899 5.725770 -20.655144 0
M  V30 80 H 11.161585 5.556481 -22.595293 0
M  V30 81 H 10.651411 3.945044 -22.869633 0
M  V30 82 H 13.818634 3.021942 -21.083808 0
M  V30 83 H 12.900146 2.881358 -22.653039 0
M  V30 END ATOM
M  V30 BEGIN BOND
M  V30 1 1 7 1
M  V30 2 2 9 7
M  V30 3 1 13 11 CFG=1
M  V30 4 1 13 12
M  V30 5 1 15 3
M  V30 6 1 16 1
M  V30 7 1 16 4
M  V30 8 1 16 8
M  V30 9 1 17 5
M  V30 10 2 18 1
M  V30 11 1 18 2
M  V30 12 1 20 14 CFG=3
M  V30 13 1 21 16
M  V30 14 1 21 17
M  V30 15 1 23 11
M  V30 16 1 24 22
M  V30 17 1 25 12
M  V30 18 1 26 20
M  V30 19 2 27 17
M  V30 20 1 28 23
M  V30 21 1 29 6
M  V30 22 1 29 22
M  V30 23 1 30 15
M  V30 24 1 31 26
M  V30 25 1 32 6
M  V30 26 1 32 10
M  V30 27 1 32 20
M  V30 28 1 33 15
M  V30 29 1 33 24
M  V30 30 1 34 2
M  V30 31 1 35 25
M  V30 32 1 35 28
M  V30 33 2 36 3
M  V30 34 2 37 9
M  V30 35 1 37 28
M  V30 36 1 37 34
M  V30 37 1 38 12
M  V30 38 1 38 13
M  V30 39 1 38 20
M  V30 40 1 39 10
M  V30 41 1 39 13
M  V30 42 2 39 19
M  V30 43 1 40 30
M  V30 44 1 6 41 CFG=3
M  V30 45 1 41 40
M  V30 46 1 42 6
M  V30 47 1 42 29
M  V30 48 1 43 2
M  V30 49 1 44 2
M  V30 50 1 45 3
M  V30 51 1 46 7
M  V30 52 1 47 10
M  V30 53 1 48 10
M  V30 54 1 49 11
M  V30 55 1 50 11
M  V30 56 1 12 51 CFG=1
M  V30 57 1 52 14
M  V30 58 1 15 53 CFG=3
M  V30 59 1 54 18
M  V30 60 1 55 22
M  V30 61 1 56 22
M  V30 62 1 57 23
M  V30 63 1 58 23
M  V30 64 1 59 24
M  V30 65 1 60 24
M  V30 66 1 61 25
M  V30 67 1 62 25
M  V30 68 1 63 26
M  V30 69 1 64 26
M  V30 70 1 28 65 CFG=1
M  V30 71 1 29 66 CFG=3
M  V30 72 1 67 30
M  V30 73 1 68 30
M  V30 74 1 69 31
M  V30 75 1 32 70 CFG=1
M  V30 76 1 71 33
M  V30 77 1 72 33
M  V30 78 1 73 34
M  V30 79 1 74 34
M  V30 80 1 75 35
M  V30 81 1 76 35
M  V30 82 1 38 77 CFG=1
M  V30 83 1 78 40
M  V30 84 1 79 40
M  V30 85 1 80 41
M  V30 86 1 81 41
M  V30 87 1 82 42
M  V30 88 1 83 42
M  V30 END BOND
M  V30 END CTAB
M  END
>  <i_epik_Tot_Q>  (1) 
-1

>  <i_epik_Tot_abs_Q>  (1) 
1

>  <i_i_glide_confnum>  (1) 
264

>  <i_i_glide_lignum>  (1) 
22

>  <i_i_glide_posenum>  (1) 
208

>  <i_i_glide_rotatable_bonds>  (1) 
9

>  <i_lp_mmshare_version>  (1) 
72125

>  <i_m_source_file_index>  (1) 
14

>  <i_f3d_flags>  (1) 
0

>  <num_sample>  (1) 
100

>  <b_lp_Chiralities_Consistent>  (1) 
1

>  <r_epik_Charging_Adjusted_Penalty>  (1) 
0.0089730796108065652

>  <r_epik_Ionization_Penalty>  (1) 
0.0044867090219468872

>  <r_epik_Ionization_Penalty_Charging>  (1) 
0.0044865398054032973

>  <r_epik_Ionization_Penalty_Neutral>  (1) 
1.6921654359002709e-07

>  <r_epik_State_Penalty>  (1) 
0.0044865398054032678

>  <r_glide_ring_energy>  (1) 
0

>  <r_i_docking_score>  (1) 
-0.9908256984357553

>  <r_i_glide_ecoul>  (1) 
0.40962912958920827

>  <r_i_glide_eff_state_penalty>  (1) 
0.0044865398054032678

>  <r_i_glide_einternal>  (1) 
21.027349180380877

>  <r_i_glide_emodel>  (1) 
-3.9235486464810965

>  <r_i_glide_emodel_strain>  (1) 
1.6611219664583814

>  <r_i_glide_energy>  (1) 
-15.317064340513932

>  <r_i_glide_erotb>  (1) 
0.1967937001840224

>  <r_i_glide_esite>  (1) 
-6.793459859489051e-05

>  <r_i_glide_evdw>  (1) 
-15.72669347010314

>  <r_i_glide_gscore>  (1) 
-0.99531223824115855

>  <r_i_glide_gscore_strain>  (1) 
0

>  <r_i_glide_hbond>  (1) 
0

>  <r_i_glide_ligand_efficiency>  (1) 
-0.023591088057994175

>  <r_i_glide_ligand_efficiency_ln>  (1) 
-0.20913777833135774

>  <r_i_glide_ligand_efficiency_sa>  (1) 
-0.082003250671450298

>  <r_i_glide_lipo>  (1) 
-0.40392025164808337

>  <r_i_glide_metal>  (1) 
-0

>  <r_i_glide_rewards>  (1) 
-0.063227448111726883

>  <r_lp_Energy>  (1) 
45.328569999999999

>  <r_lp_tautomer_probability>  (1) 
0.99985000999950013

>  <s_epik_Chemistry_Notes>  (1) 
This compound has an ester and may undergo hydrolysis at high or low pH. This is carbonic acid which has a microscopic pka value of about 3.8 however its equilibrium with CO2 as a lewis acid yields a pKa of about 6.35.

>  <s_epik_cmdline>  (1) 
J2VwaWtfcHl0aG9uJywgJy1waHQnLCAnMS4wJywgJy1waCcsICc3LjQnLCAnLXRuJywgJzgnLCAnLW1hJywgJzUwMCcsICctaW1hZScsICc8aW5maWxlLm1hZT4nLCAnLW9tYWUnLCAnPG91dGZpbGUubWFlPic=

>  <s_epik_input>  (1) 
W09IXUMoPU8pT0MoRikoRilDMT1bQ0hdW0NIMl1bQ0gyXUMoPUM9W0NIXTEpW0NAQEhdKFtDSDJdW0NIMl0yKVtDSDJdW0NIMl1bQ0BASF0oQzIzNClbQ0BIXTNbQ0BdKFtPSF0pKFtDSDJdW09IXSlbQ0BIXShbQ0gyXUM0PU8pW0NAXTU2W0NAQEhdKFtDSDJdNilbQ0gyXVtDSDJdW0NIMl1bQ0BASF0oW0NIXT1PKVtDSDJdW0NIMl1bQ0gyXTU=

>  <s_glide_docking_method>  (1) 
confgen

>  <s_i_glide_gridfile>  (1) 
gpcr_drd2_6luq_protein_autoprepared_prepared

>  <s_lp_Force_Field>  (1) 
S-OPLS

>  <s_lp_Variant>  (1) 
DiffSBDD_13_num_sample_100-1

>  <s_m_source_file>  (1) 
generated__ligand_DiffSBDD_2026-05-06_prepared.sdf

>  <GenAI_Model>  (1) 
DiffSBDD

>  <Protein>  (1) 
generic_title2

$$$$
DiffSBDD_84_num_sample_100
     RDKit          3D

  0  0  0  0  0  0  0  0  0  0999 V3000
M  V30 BEGIN CTAB
M  V30 COUNTS 78 81 0 0 1
M  V30 BEGIN ATOM
M  V30 1 O 9.890422 0.836670 -17.571158 0
M  V30 2 C 8.868037 5.680855 -19.358794 0
M  V30 3 C 5.205360 0.167940 -13.609665 0
M  V30 4 C 6.900244 4.937193 -10.457999 0
M  V30 5 O 19.250450 2.977709 -20.974559 0
M  V30 6 C 7.227388 6.752354 -12.357346 0
M  V30 7 P 12.147512 1.386175 -19.439896 0 CFG=1
M  V30 8 O 18.467409 6.990988 -18.209137 0
M  V30 9 C 6.201640 4.417344 -12.790668 0
M  V30 10 C 10.021496 4.445118 -17.071192 0
M  V30 11 O 10.928394 2.341658 -18.932698 0
M  V30 12 C 15.133914 4.334804 -17.525744 0
M  V30 13 C 10.935209 5.105803 -18.117291 0
M  V30 14 O 8.551407 2.705363 -16.288675 0
M  V30 15 C 10.045590 1.984027 -17.993707 0
M  V30 16 O 15.693020 2.964747 -20.671388 0
M  V30 17 C 13.335582 2.620422 -20.143188 0
M  V30 18 C 6.570517 5.491344 -11.831417 0
M  V30 19 C 15.659614 5.053259 -18.760338 0 CFG=2
M  V30 20 C 9.211730 3.166783 -17.463403 0 CFG=2
M  V30 21 O 7.048256 4.418841 -16.186874 0
M  V30 22 C 17.207830 4.906502 -19.030127 0 CFG=1
M  V30 23 C 16.926795 2.342054 -21.020507 0
M  V30 24 C 14.920675 3.001556 -17.405805 0
M  V30 25 S 6.738996 0.575479 -12.735783 0
M  V30 26 C 12.946692 0.786991 -17.873382 0
M  V30 27 C 14.778879 2.136208 -19.973576 0 CFG=2
M  V30 28 C 17.723278 4.769647 -20.467888 0
M  V30 29 C 15.173267 1.915411 -18.483829 0 CFG=2
M  V30 30 C 17.466744 6.337349 -18.496793 0
M  V30 31 C 14.472397 0.624110 -17.998377 0
M  V30 32 C 18.080525 3.329287 -20.835451 0
M  V30 33 O 10.278374 5.624931 -19.191327 0
M  V30 34 C 5.764745 6.771192 -11.990390 0
M  V30 35 C 7.730663 1.419759 -14.011031 0
M  V30 36 O 11.795449 0.294604 -20.389945 0
M  V30 37 N 7.240780 3.750601 -13.313496 0
M  V30 38 C 7.073737 2.770114 -14.382879 0 CFG=1
M  V30 39 C 7.541448 3.390526 -15.719959 0
M  V30 40 O 12.152102 5.148282 -17.963846 0
M  V30 41 S 15.797384 6.857248 -18.411338 0
M  V30 42 O 5.035053 4.168010 -13.082726 0
M  V30 43 H 8.638115 6.426811 -20.123263 0
M  V30 44 H 8.486433 4.728672 -19.728574 0
M  V30 45 H 8.338881 5.970963 -18.448972 0
M  V30 46 H 4.560624 -0.383746 -12.932393 0
M  V30 47 H 4.654030 1.055558 -13.901227 0
M  V30 48 H 5.400789 -0.457582 -14.481347 0
M  V30 49 H 6.888715 5.736818 -9.719909 0
M  V30 50 H 6.179843 4.177075 -10.154773 0
M  V30 51 H 7.892457 4.490655 -10.463618 0
M  V30 52 H 7.916821 7.262302 -11.687079 0
M  V30 53 H 7.484144 6.794528 -13.412723 0
M  V30 54 H 9.359094 5.224026 -16.695770 0
M  V30 55 H 10.659123 4.184042 -16.224603 0
M  V30 56 H 14.911344 4.967623 -16.676985 0
M  V30 57 H 13.184090 3.583335 -19.663075 0
M  V30 58 H 13.105852 2.741205 -21.201902 0
M  V30 59 H 15.012012 4.938733 -19.625853 0
M  V30 60 H 8.450018 3.384822 -18.209843 0
M  V30 61 H 17.649694 4.169738 -18.363807 0
M  V30 62 H 16.885465 2.021744 -22.061425 0
M  V30 63 H 17.127485 1.453955 -20.422755 0
M  V30 64 H 14.543676 2.636525 -16.460855 0
M  V30 65 H 12.689732 1.477690 -17.072443 0
M  V30 66 H 12.495270 -0.168087 -17.602313 0
M  V30 67 H 14.824456 1.172210 -20.485236 0
M  V30 68 H 16.968950 5.121393 -21.170759 0
M  V30 69 H 18.609438 5.383486 -20.634156 0
M  V30 70 H 16.234839 1.690826 -18.459076 0
M  V30 71 H 14.879306 0.316773 -17.032756 0
M  V30 72 H 14.688988 -0.201516 -18.677520 0
M  V30 73 H 5.054108 6.840482 -12.811438 0
M  V30 74 H 5.457397 7.299904 -11.092622 0
M  V30 75 H 7.788078 0.750449 -14.871097 0
M  V30 76 H 8.739665 1.563367 -13.626388 0
M  V30 77 H 8.175125 3.978824 -13.005217 0
M  V30 78 H 6.022084 2.565948 -14.493226 0
M  V30 END ATOM
M  V30 BEGIN BOND
M  V30 1 1 7 11 CFG=1
M  V30 2 1 13 10
M  V30 3 2 15 1
M  V30 4 1 15 11
M  V30 5 1 17 7
M  V30 6 1 18 4
M  V30 7 1 18 6
M  V30 8 1 18 9
M  V30 9 1 19 12
M  V30 10 1 20 10
M  V30 11 1 20 14
M  V30 12 1 20 15
M  V30 13 1 22 19
M  V30 14 1 23 16
M  V30 15 2 24 12
M  V30 16 1 25 3
M  V30 17 1 26 7
M  V30 18 1 27 16
M  V30 19 1 27 17
M  V30 20 1 28 22
M  V30 21 1 29 24
M  V30 22 1 29 27
M  V30 23 2 30 8
M  V30 24 1 30 22
M  V30 25 1 31 26
M  V30 26 1 31 29
M  V30 27 2 32 5
M  V30 28 1 32 23
M  V30 29 1 32 28
M  V30 30 1 33 2
M  V30 31 1 33 13
M  V30 32 1 34 6
M  V30 33 1 34 18
M  V30 34 1 35 25
M  V30 35 2 36 7
M  V30 36 1 37 9
M  V30 37 1 38 35
M  V30 38 1 38 37
M  V30 39 1 39 14
M  V30 40 2 39 21
M  V30 41 1 39 38
M  V30 42 2 40 13
M  V30 43 1 41 19
M  V30 44 1 41 30
M  V30 45 2 42 9
M  V30 46 1 43 2
M  V30 47 1 44 2
M  V30 48 1 45 2
M  V30 49 1 46 3
M  V30 50 1 47 3
M  V30 51 1 48 3
M  V30 52 1 49 4
M  V30 53 1 50 4
M  V30 54 1 51 4
M  V30 55 1 52 6
M  V30 56 1 53 6
M  V30 57 1 54 10
M  V30 58 1 55 10
M  V30 59 1 56 12
M  V30 60 1 57 17
M  V30 61 1 58 17
M  V30 62 1 19 59 CFG=3
M  V30 63 1 20 60 CFG=3
M  V30 64 1 22 61 CFG=1
M  V30 65 1 62 23
M  V30 66 1 63 23
M  V30 67 1 64 24
M  V30 68 1 65 26
M  V30 69 1 66 26
M  V30 70 1 27 67 CFG=3
M  V30 71 1 68 28
M  V30 72 1 69 28
M  V30 73 1 29 70 CFG=3
M  V30 74 1 71 31
M  V30 75 1 72 31
M  V30 76 1 73 34
M  V30 77 1 74 34
M  V30 78 1 75 35
M  V30 79 1 76 35
M  V30 80 1 77 37
M  V30 81 1 38 78 CFG=3
M  V30 END BOND
M  V30 END CTAB
M  END
>  <i_epik_Tot_Q>  (1) 
0

>  <i_epik_Tot_abs_Q>  (1) 
0

>  <i_i_glide_confnum>  (1) 
229

>  <i_i_glide_lignum>  (1) 
173

>  <i_i_glide_posenum>  (1) 
38

>  <i_i_glide_rotatable_bonds>  (1) 
14

>  <i_lp_mmshare_version>  (1) 
72125

>  <i_m_source_file_index>  (1) 
85

>  <i_f3d_flags>  (1) 
0

>  <num_sample>  (1) 
100

>  <b_lp_Chiralities_Consistent>  (1) 
1

>  <r_epik_Charging_Adjusted_Penalty>  (1) 
0

>  <r_epik_Ionization_Penalty>  (1) 
7.2332005044410275e-08

>  <r_epik_Ionization_Penalty_Charging>  (1) 
0

>  <r_epik_Ionization_Penalty_Neutral>  (1) 
7.2332005044410275e-08

>  <r_epik_State_Penalty>  (1) 
-0

>  <r_glide_ring_energy>  (1) 
0

>  <r_i_docking_score>  (1) 
-0.93381565803425981

>  <r_i_glide_ecoul>  (1) 
-1.3930579325816232

>  <r_i_glide_eff_state_penalty>  (1) 
-0

>  <r_i_glide_einternal>  (1) 
18.62286333197541

>  <r_i_glide_emodel>  (1) 
-30.373692200350526

>  <r_i_glide_emodel_strain>  (1) 
3.1813209081723741

>  <r_i_glide_energy>  (1) 
-41.093696859570727

>  <r_i_glide_erotb>  (1) 
0.4114608192218252

>  <r_i_glide_esite>  (1) 
0

>  <r_i_glide_evdw>  (1) 
-39.7006389269891

>  <r_i_glide_gscore>  (1) 
-0.93381565803425981

>  <r_i_glide_gscore_strain>  (1) 
0

>  <r_i_glide_hbond>  (1) 
0

>  <r_i_glide_ligand_efficiency>  (1) 
-0.022233706143672854

>  <r_i_glide_ligand_efficiency_ln>  (1) 
-0.1971044275503144

>  <r_i_glide_ligand_efficiency_sa>  (1) 
-0.077284954969982403

>  <r_i_glide_lipo>  (1) 
-1.0844174039791366

>  <r_i_glide_metal>  (1) 
-0

>  <r_i_glide_rewards>  (1) 
1.9331315629597496

>  <r_lp_Energy>  (1) 
16.435652999999999

>  <r_lp_tautomer_probability>  (1) 
1

>  <s_epik_Chemistry_Notes>  (1) 
This compound has an ester and may undergo hydrolysis at high or low pH.

>  <s_epik_cmdline>  (1) 
J2VwaWtfcHl0aG9uJywgJy1waHQnLCAnMS4wJywgJy1waCcsICc3LjQnLCAnLXRuJywgJzgnLCAnLW1hJywgJzUwMCcsICctaW1hZScsICc8aW5maWxlLm1hZT4nLCAnLW9tYWUnLCAnPG91dGZpbGUubWFlPic=

>  <s_epik_input>  (1) 
W0NIMl0xW0NIMl1DMShbQ0gzXSlDKD1PKVtOSF1bQ0BIXShbQ0gyXVNbQ0gzXSlDKD1PKU9bQ0BASF0oW0NIMl1DKD1PKU9bQ0gzXSlDKD1PKU9QKD1PKShbQ0gyXTIpW0NIMl1bQ0gyXVtDQEhdKC9bQ0hdPVtDSF1cMylbQ0BASF0yT1tDSDJdQyg9TylbQ0gyXVtDQEhdKFtDQEBIXTM0KUMoPU8pUzQ=

>  <s_glide_docking_method>  (1) 
confgen

>  <s_i_glide_gridfile>  (1) 
gpcr_drd2_6luq_protein_autoprepared_prepared

>  <s_lp_Force_Field>  (1) 
S-OPLS

>  <s_lp_Variant>  (1) 
DiffSBDD_84_num_sample_100-1

>  <s_m_source_file>  (1) 
generated__ligand_DiffSBDD_2026-05-06_prepared.sdf

>  <GenAI_Model>  (1) 
DiffSBDD

>  <Protein>  (1) 
generic_title2

$$$$
DiffSBDD_89_num_sample_100
     RDKit          3D

  0  0  0  0  0  0  0  0  0  0999 V3000
M  V30 BEGIN CTAB
M  V30 COUNTS 74 79 0 0 1
M  V30 BEGIN ATOM
M  V30 1 C 18.434108 6.962491 -21.194396 0
M  V30 2 C 19.428231 9.284013 -21.954465 0
M  V30 3 C 18.186078 8.431433 -21.589355 0
M  V30 4 C 19.536888 8.650598 -18.823463 0
M  V30 5 C 21.084427 11.019305 -21.312003 0 CFG=1
M  V30 6 C 24.512004 10.995392 -19.730002 0 CFG=2
M  V30 7 C 14.007310 6.677152 -17.043427 0
M  V30 8 C 22.048907 11.805914 -20.435602 0 CFG=2
M  V30 9 C 12.634126 7.257074 -16.760708 0
M  V30 10 C 15.760152 5.066608 -16.509985 0
M  V30 11 C 23.062909 12.910343 -20.746464 0
M  V30 12 C 20.475114 11.879883 -22.424614 0
M  V30 13 C 14.283646 8.356897 -18.940145 0
M  V30 14 C 24.075335 11.060291 -18.247817 0
M  V30 15 C 16.558319 5.580700 -17.547926 0
M  V30 16 C 22.560012 10.644990 -21.333304 0 CFG=1
M  V30 17 C 22.449714 11.940824 -16.500262 0
M  V30 18 C 20.569423 8.978134 -19.913743 0
M  V30 19 C 14.803541 7.202422 -18.091228 0
M  V30 20 C 21.716714 11.880678 -18.925350 0
M  V30 21 C 18.020401 5.904697 -22.210794 0
M  V30 22 C 19.221212 7.153413 -18.732402 0
M  V30 23 C 18.139451 6.656360 -19.718208 0 CFG=1
M  V30 24 C 19.473355 6.120930 -21.925348 0
M  V30 25 C 22.914010 12.030640 -17.960401 0 CFG=2
M  V30 26 N 20.077976 10.006150 -20.838532 0
M  V30 27 C 24.502128 12.397561 -20.423446 0
M  V30 28 C 23.663171 9.961329 -20.525647 0
M  V30 29 O 16.851514 7.175085 -19.377962 0
M  V30 30 C 16.083819 6.654044 -18.348127 0
M  V30 31 C 14.489408 5.611260 -16.259056 0
M  V30 32 H 19.024321 9.997093 -22.667726 0
M  V30 33 H 20.167932 8.713461 -22.514218 0
M  V30 34 H 17.575324 8.950385 -20.852202 0
M  V30 35 H 17.549948 8.413947 -22.474610 0
M  V30 36 H 18.624223 9.239643 -18.913972 0
M  V30 37 H 19.966263 8.969461 -17.876827 0
M  V30 38 H 25.538881 10.626975 -19.725788 0
M  V30 39 H 12.234796 6.881744 -15.818101 0
M  V30 40 H 12.669447 8.344217 -16.691413 0
M  V30 41 H 11.939681 6.976462 -17.553239 0
M  V30 42 H 16.124279 4.251138 -15.903315 0
M  V30 43 H 22.824424 13.814607 -20.185451 0
M  V30 44 H 23.013946 13.197165 -21.796447 0
M  V30 45 H 21.000415 12.824868 -22.542888 0
M  V30 46 H 20.534160 11.368573 -23.385804 0
M  V30 47 H 19.435518 12.128479 -22.208275 0
M  V30 48 H 14.242268 9.271125 -18.347314 0
M  V30 49 H 14.909998 8.554247 -19.809361 0
M  V30 50 H 13.279713 8.145489 -19.308484 0
M  V30 51 H 23.829193 10.060907 -17.886357 0
M  V30 52 H 24.930909 11.377761 -17.650519 0
M  V30 53 H 17.529518 5.152365 -17.725702 0
M  V30 54 H 22.961074 10.886891 -22.317212 0
M  V30 55 H 22.013806 10.969245 -16.276474 0
M  V30 56 H 23.275998 12.108179 -15.808898 0
M  V30 57 H 21.686903 12.690329 -16.291674 0
M  V30 58 H 21.438228 9.300262 -19.364821 0
M  V30 59 H 20.908815 8.091381 -20.451075 0
M  V30 60 H 21.069409 11.083157 -18.589147 0
M  V30 61 H 21.089994 12.759365 -18.786404 0
M  V30 62 H 17.570415 4.984787 -21.842422 0
M  V30 63 H 17.656696 6.231687 -23.182985 0
M  V30 64 H 18.903891 6.943095 -17.712299 0
M  V30 65 H 20.136727 6.576513 -18.869190 0
M  V30 66 H 18.111915 5.569100 -19.659360 0
M  V30 67 H 20.058967 6.566584 -22.725217 0
M  V30 68 H 19.989822 5.350197 -21.356366 0
M  V30 69 H 23.307258 13.041051 -18.072828 0
M  V30 70 H 25.039319 13.128246 -19.817859 0
M  V30 71 H 25.061256 12.324431 -21.357105 0
M  V30 72 H 23.323328 9.134579 -19.910721 0
M  V30 73 H 24.319143 9.485044 -21.255291 0
M  V30 74 H 13.881806 5.210957 -15.460243 0
M  V30 END ATOM
M  V30 BEGIN BOND
M  V30 1 1 3 1
M  V30 2 1 3 2
M  V30 3 1 8 5
M  V30 4 1 9 7
M  V30 5 1 8 11 CFG=3
M  V30 6 1 5 12 CFG=3
M  V30 7 1 14 6
M  V30 8 1 15 10
M  V30 9 1 16 5
M  V30 10 1 16 8
M  V30 11 1 18 4
M  V30 12 2 19 7
M  V30 13 1 19 13
M  V30 14 1 20 8
M  V30 15 1 21 1
M  V30 16 1 22 4
M  V30 17 1 23 1
M  V30 18 1 23 22
M  V30 19 1 24 1
M  V30 20 1 24 21
M  V30 21 1 25 14
M  V30 22 1 25 17
M  V30 23 1 25 20
M  V30 24 1 26 2
M  V30 25 1 26 5
M  V30 26 1 26 18
M  V30 27 1 27 6
M  V30 28 1 27 11
M  V30 29 1 28 6
M  V30 30 1 28 16
M  V30 31 1 29 23
M  V30 32 2 30 15
M  V30 33 1 30 19
M  V30 34 1 30 29
M  V30 35 1 31 7
M  V30 36 2 31 10
M  V30 37 1 32 2
M  V30 38 1 33 2
M  V30 39 1 34 3
M  V30 40 1 35 3
M  V30 41 1 36 4
M  V30 42 1 37 4
M  V30 43 1 6 38 CFG=1
M  V30 44 1 39 9
M  V30 45 1 40 9
M  V30 46 1 41 9
M  V30 47 1 42 10
M  V30 48 1 43 11
M  V30 49 1 44 11
M  V30 50 1 45 12
M  V30 51 1 46 12
M  V30 52 1 47 12
M  V30 53 1 48 13
M  V30 54 1 49 13
M  V30 55 1 50 13
M  V30 56 1 51 14
M  V30 57 1 52 14
M  V30 58 1 53 15
M  V30 59 1 16 54 CFG=3
M  V30 60 1 55 17
M  V30 61 1 56 17
M  V30 62 1 57 17
M  V30 63 1 58 18
M  V30 64 1 59 18
M  V30 65 1 60 20
M  V30 66 1 61 20
M  V30 67 1 62 21
M  V30 68 1 63 21
M  V30 69 1 64 22
M  V30 70 1 65 22
M  V30 71 1 23 66 CFG=3
M  V30 72 1 67 24
M  V30 73 1 68 24
M  V30 74 1 25 69 CFG=1
M  V30 75 1 70 27
M  V30 76 1 71 27
M  V30 77 1 72 28
M  V30 78 1 73 28
M  V30 79 1 74 31
M  V30 END BOND
M  V30 END CTAB
M  END
>  <i_epik_Tot_Q>  (1) 
0

>  <i_epik_Tot_abs_Q>  (1) 
0

>  <i_i_glide_confnum>  (1) 
106

>  <i_i_glide_lignum>  (1) 
180

>  <i_i_glide_posenum>  (1) 
123

>  <i_i_glide_rotatable_bonds>  (1) 
3

>  <i_lp_mmshare_version>  (1) 
72125

>  <i_m_source_file_index>  (1) 
90

>  <i_f3d_flags>  (1) 
0

>  <num_sample>  (1) 
100

>  <b_lp_Chiralities_Consistent>  (1) 
1

>  <r_epik_Charging_Adjusted_Penalty>  (1) 
1.2690052337476654

>  <r_epik_Ionization_Penalty>  (1) 
1.2690052337476654

>  <r_epik_Ionization_Penalty_Charging>  (1) 
0

>  <r_epik_Ionization_Penalty_Neutral>  (1) 
1.2690052337476654

>  <r_epik_State_Penalty>  (1) 
1.2690052337476654

>  <r_glide_ring_energy>  (1) 
2.3444449692425784

>  <r_i_docking_score>  (1) 
-0.90443710889856876

>  <r_i_glide_ecoul>  (1) 
-0.26830228887037399

>  <r_i_glide_eff_state_penalty>  (1) 
1.2690052337476654

>  <r_i_glide_einternal>  (1) 
0.30978927359265107

>  <r_i_glide_emodel>  (1) 
-20.976237855972997

>  <r_i_glide_emodel_strain>  (1) 
0

>  <r_i_glide_energy>  (1) 
-18.937580519979921

>  <r_i_glide_erotb>  (1) 
0.33412944557780477

>  <r_i_glide_esite>  (1) 
0

>  <r_i_glide_evdw>  (1) 
-18.669278231109548

>  <r_i_glide_gscore>  (1) 
-2.1734423426462341

>  <r_i_glide_gscore_strain>  (1) 
0

>  <r_i_glide_hbond>  (1) 
0

>  <r_i_glide_ligand_efficiency>  (1) 
-0.029175390609631251

>  <r_i_glide_ligand_efficiency_ln>  (1) 
-0.2039782857252489

>  <r_i_glide_ligand_efficiency_sa>  (1) 
-0.091651007587057159

>  <r_i_glide_lipo>  (1) 
-0.99980907879254943

>  <r_i_glide_metal>  (1) 
-0

>  <r_i_glide_rewards>  (1) 
-0.53405345454545594

>  <r_lp_Energy>  (1) 
72.584220999999999

>  <r_lp_tautomer_probability>  (1) 
1

>  <s_epik_cmdline>  (1) 
J2VwaWtfcHl0aG9uJywgJy1waHQnLCAnMS4wJywgJy1waCcsICc3LjQnLCAnLXRuJywgJzgnLCAnLW1hJywgJzUwMCcsICctaW1hZScsICc8aW5maWxlLm1hZT4nLCAnLW9tYWUnLCAnPG91dGZpbGUubWFlPic=

>  <s_epik_input>  (1) 
W0NIM11bQ0BIXShbQ0gyXTEpW0NIMl1bQ0BIXShbQ0gyXVtDSDJdMilbQ0gyXVtDQEhdKFtDQEBdMTIzKVtDQEBdMyhbQ0gzXSlOKFtDSDJdW0NIMl1DNDVbQ0gyXVtDSDJdNSlbQ0gyXVtDSDJdW0NIMl1bQ0BIXTRPYyhbY0hdW2NIXVtjSF02KWMoW0NIM10pYzZbQ0gzXQ==

>  <s_glide_docking_method>  (1) 
confgen

>  <s_i_glide_gridfile>  (1) 
gpcr_drd2_6luq_protein_autoprepared_prepared

>  <s_lp_Force_Field>  (1) 
S-OPLS

>  <s_lp_Variant>  (1) 
DiffSBDD_89_num_sample_100-2

>  <s_m_source_file>  (1) 
generated__ligand_DiffSBDD_2026-05-06_prepared.sdf

>  <GenAI_Model>  (1) 
DiffSBDD

>  <Protein>  (1) 
generic_title2

$$$$
DiffSBDD_56_num_sample_100
     RDKit          3D

  0  0  0  0  0  0  0  0  0  0999 V3000
M  V30 BEGIN CTAB
M  V30 COUNTS 70 76 0 0 1
M  V30 BEGIN ATOM
M  V30 1 O 4.753979 10.122070 -21.649019 0
M  V30 2 C 8.857944 -0.105151 -17.091663 0
M  V30 3 C 5.603393 -0.707360 -17.119107 0
M  V30 4 C 6.474739 1.712731 -17.334068 0
M  V30 5 C 9.607905 7.208746 -21.549449 0 CFG=2
M  V30 6 C 8.535308 2.533028 -18.673334 0
M  V30 7 F 6.437634 2.209664 -19.566334 0
M  V30 8 C 7.000145 9.819550 -22.500136 0
M  V30 9 C 10.593362 2.894448 -20.143907 0 CFG=1
M  V30 10 C 5.950107 9.413322 -21.649536 0
M  V30 11 C 9.894688 -0.190840 -17.891622 0
M  V30 12 C 9.977160 5.233906 -19.890035 0 CFG=1
M  V30 13 C 10.630154 3.095230 -21.620331 0
M  V30 14 N 9.192333 6.433201 -20.290170 0 CFG=2 CHG=1
M  V30 15 C 8.102434 -0.443903 -14.764610 0
M  V30 16 C 7.264218 1.687778 -18.656879 0 CFG=2
M  V30 17 C 7.370241 7.617909 -20.827085 0
M  V30 18 C 3.626203 9.713087 -20.853629 0
M  V30 19 C 5.067922 7.916611 -19.902292 0
M  V30 20 C 7.872248 -0.064402 -16.219694 0
M  V30 21 C 6.817171 11.013276 -23.387789 0
M  V30 22 C 7.691969 6.454625 -19.978572 0
M  V30 23 C 9.634358 4.832832 -18.418693 0
M  V30 24 C 3.911264 8.569292 -19.910111 0
M  V30 25 C 8.457919 3.849348 -18.340559 0
M  V30 26 C 6.135573 8.301940 -20.793885 0
M  V30 27 C 5.246458 -0.035190 -15.831191 0
M  V30 28 C 9.758637 4.011185 -20.782719 0 CFG=1
M  V30 29 O 8.234802 0.721345 -13.972602 0
M  V30 30 C 9.813309 2.008913 -19.228279 0
M  V30 31 C 8.366866 8.008703 -21.646712 0
M  V30 32 C 9.845551 6.351392 -22.802933 0
M  V30 33 C 10.351306 0.779160 -18.917206 0
M  V30 34 C 8.221112 9.109241 -22.503091 0
M  V30 35 C 6.503583 0.401479 -16.590066 0
M  V30 36 H 4.979302 -0.491833 -17.984667 0
M  V30 37 H 5.958421 -1.734978 -17.053652 0
M  V30 38 H 6.794216 2.509405 -16.662953 0
M  V30 39 H 5.434845 1.900247 -17.580017 0
M  V30 40 H 10.466410 7.847186 -21.336430 0
M  V30 41 H 11.539834 3.158032 -19.673006 0
M  V30 42 H 10.615322 -0.962855 -17.664491 0
M  V30 43 H 11.029073 5.518998 -19.940192 0
M  V30 44 H 10.130251 2.353314 -22.240189 0
M  V30 45 H 11.532819 3.523076 -22.051212 0
M  V30 46 H 9.017265 -1.030693 -14.680391 0
M  V30 47 H 7.292988 -1.030693 -14.343810 0
M  V30 48 H 7.416753 0.685908 -19.058017 0
M  V30 49 H 3.260229 10.569019 -20.291665 0
M  V30 50 H 2.822000 9.412248 -21.525038 0
M  V30 51 H 5.235262 7.096070 -19.222360 0
M  V30 52 H 7.743189 11.261010 -23.891667 0
M  V30 53 H 6.020968 10.818557 -24.097346 0
M  V30 54 H 6.517709 11.864402 -22.784529 0
M  V30 55 H 7.173067 5.562583 -20.330434 0
M  V30 56 H 7.493449 6.637654 -18.922100 0
M  V30 57 H 9.425206 5.707033 -17.800914 0
M  V30 58 H 10.498302 4.368622 -17.941633 0
M  V30 59 H 3.122095 8.282731 -19.230252 0
M  V30 60 H 7.515107 4.257613 -18.007466 0
M  V30 61 H 5.321422 -0.630814 -14.927618 0
M  V30 62 H 4.347633 0.569310 -15.874145 0
M  V30 63 H 8.706171 3.833004 -21.001067 0
M  V30 64 H 8.482683 0.475440 -13.093195 0
M  V30 65 H 9.961199 6.982207 -23.684440 0
M  V30 66 H 10.757760 5.762660 -22.715059 0
M  V30 67 H 9.013429 5.672205 -22.993812 0
M  V30 68 H 11.288996 0.541020 -19.398748 0
M  V30 69 H 9.033189 9.415022 -23.148587 0
M  V30 70 H 9.501418 7.099200 -19.597032 0
M  V30 END ATOM
M  V30 BEGIN BOND
M  V30 1 1 10 1
M  V30 2 1 10 8
M  V30 3 2 11 2
M  V30 4 1 13 9
M  V30 5 1 14 5
M  V30 6 1 14 12
M  V30 7 1 16 4
M  V30 8 1 16 6
M  V30 9 1 16 7
M  V30 10 1 18 1
M  V30 11 2 20 2
M  V30 12 1 20 15
M  V30 13 1 21 8
M  V30 14 1 22 14
M  V30 15 1 22 17
M  V30 16 1 23 12
M  V30 17 1 24 18
M  V30 18 2 24 19
M  V30 19 2 25 6
M  V30 20 1 25 23
M  V30 21 2 26 10
M  V30 22 1 26 17
M  V30 23 1 26 19
M  V30 24 1 27 3
M  V30 25 1 28 9
M  V30 26 1 28 12
M  V30 27 1 28 13
M  V30 28 1 29 15
M  V30 29 1 30 6
M  V30 30 1 30 9
M  V30 31 1 31 5
M  V30 32 2 31 17
M  V30 33 1 32 5
M  V30 34 1 33 11
M  V30 35 2 33 30
M  V30 36 2 34 8
M  V30 37 1 34 31
M  V30 38 1 35 3
M  V30 39 1 35 4
M  V30 40 1 35 20
M  V30 41 1 35 27
M  V30 42 1 36 3
M  V30 43 1 37 3
M  V30 44 1 38 4
M  V30 45 1 39 4
M  V30 46 1 5 40 CFG=1
M  V30 47 1 9 41 CFG=1
M  V30 48 1 42 11
M  V30 49 1 12 43 CFG=1
M  V30 50 1 44 13
M  V30 51 1 45 13
M  V30 52 1 46 15
M  V30 53 1 47 15
M  V30 54 1 16 48 CFG=3
M  V30 55 1 49 18
M  V30 56 1 50 18
M  V30 57 1 51 19
M  V30 58 1 52 21
M  V30 59 1 53 21
M  V30 60 1 54 21
M  V30 61 1 55 22
M  V30 62 1 56 22
M  V30 63 1 57 23
M  V30 64 1 58 23
M  V30 65 1 59 24
M  V30 66 1 60 25
M  V30 67 1 61 27
M  V30 68 1 62 27
M  V30 69 1 28 63 CFG=3
M  V30 70 1 64 29
M  V30 71 1 65 32
M  V30 72 1 66 32
M  V30 73 1 67 32
M  V30 74 1 68 33
M  V30 75 1 69 34
M  V30 76 1 14 70 CFG=1
M  V30 END BOND
M  V30 END CTAB
M  END
>  <i_epik_Tot_Q>  (1) 
1

>  <i_epik_Tot_abs_Q>  (1) 
1

>  <i_i_glide_confnum>  (1) 
2

>  <i_i_glide_lignum>  (1) 
113

>  <i_i_glide_posenum>  (1) 
253

>  <i_i_glide_rotatable_bonds>  (1) 
3

>  <i_lp_mmshare_version>  (1) 
72125

>  <i_m_source_file_index>  (1) 
57

>  <i_f3d_flags>  (1) 
0

>  <num_sample>  (1) 
100

>  <b_lp_Chiralities_Consistent>  (1) 
1

>  <r_epik_Charging_Adjusted_Penalty>  (1) 
0.14231297848205576

>  <r_epik_Ionization_Penalty>  (1) 
0.071157794031890806

>  <r_epik_Ionization_Penalty_Charging>  (1) 
0.071156489241027923

>  <r_epik_Ionization_Penalty_Neutral>  (1) 
1.3047908628845687e-06

>  <r_epik_State_Penalty>  (1) 
0.071156489241027826

>  <r_glide_ring_energy>  (1) 
0

>  <r_i_docking_score>  (1) 
-0.78983535210970202

>  <r_i_glide_ecoul>  (1) 
-2.7138767172035827

>  <r_i_glide_eff_state_penalty>  (1) 
0.071156489241027826

>  <r_i_glide_einternal>  (1) 
3.4271525191634633

>  <r_i_glide_emodel>  (1) 
-10.186167888998156

>  <r_i_glide_emodel_strain>  (1) 
13.100925469060684

>  <r_i_glide_energy>  (1) 
-23.813492822473453

>  <r_i_glide_erotb>  (1) 
0.18105195314905365

>  <r_i_glide_esite>  (1) 
0

>  <r_i_glide_evdw>  (1) 
-21.09961610526987

>  <r_i_glide_gscore>  (1) 
-0.86099184135072981

>  <r_i_glide_gscore_strain>  (1) 
2.2752313672651709

>  <r_i_glide_hbond>  (1) 
0

>  <r_i_glide_ligand_efficiency>  (1) 
-0.022566724345991485

>  <r_i_glide_ligand_efficiency_ln>  (1) 
-0.17338638923925784

>  <r_i_glide_ligand_efficiency_sa>  (1) 
-0.073817251739485404

>  <r_i_glide_lipo>  (1) 
-1.5875471271703834

>  <r_i_glide_metal>  (1) 
-0

>  <r_i_glide_rewards>  (1) 
-0.26766572175053954

>  <r_lp_Energy>  (1) 
56.449574999999996

>  <s_epik_cmdline>  (1) 
J2VwaWtfcHl0aG9uJywgJy1waHQnLCAnMS4wJywgJy1waCcsICc3LjQnLCAnLXRuJywgJzgnLCAnLW1hJywgJzUwMCcsICctaW1hZScsICc8aW5maWxlLm1hZT4nLCAnLW9tYWUnLCAnPG91dGZpbGUubWFlPic=

>  <s_epik_input>  (1) 
TzFbQ0gyXVtDSF09W0NIXWMoYzEyKWMzYyhbY0hdYzJbQ0gzXSlbQ0BIXShbQ0gzXSlOKFtDSDJdMylbQ0BASF0oW0NIMl1bQ0hdNClbQ0BASF0oW0NIMl01KVtDQEhdNUMoXEM9NFtDQEhdKEYpW0NIMl1DNjdbQ0gyXVtDSDJdNyk9W0NIXVxbQ0hdPUM9QzZbQ0gyXVtPSF0=

>  <s_glide_docking_method>  (1) 
confgen

>  <s_i_glide_gridfile>  (1) 
gpcr_drd2_6luq_protein_autoprepared_prepared

>  <s_lp_Force_Field>  (1) 
S-OPLS

>  <s_lp_Variant>  (1) 
DiffSBDD_56_num_sample_100-2

>  <s_m_source_file>  (1) 
generated__ligand_DiffSBDD_2026-05-06_prepared.sdf

>  <GenAI_Model>  (1) 
DiffSBDD

>  <Protein>  (1) 
generic_title2

$$$$
DiffSBDD_92_num_sample_100
     RDKit          3D

  0  0  0  0  0  0  0  0  0  0999 V3000
M  V30 BEGIN CTAB
M  V30 COUNTS 65 67 0 0 1
M  V30 BEGIN ATOM
M  V30 1 F 22.670781 18.294897 -13.119304 0
M  V30 2 C 18.767237 21.202963 -14.223644 0 CFG=1
M  V30 3 C 19.860513 17.917566 -21.020823 0
M  V30 4 C 21.991198 18.679873 -9.507893 0
M  V30 5 S 20.496046 19.702732 -16.392806 0
M  V30 6 F 21.326037 19.394438 -19.266736 0
M  V30 7 C 22.783819 18.172839 -11.774376 0
M  V30 8 C 16.586134 19.949813 -17.782650 0
M  V30 9 C 20.736023 19.686896 -11.522529 0 CFG=2
M  V30 10 C 18.631670 19.957410 -21.708164 0
M  V30 11 S 20.330737 22.020808 -13.721484 0
M  V30 12 C 17.757657 20.301902 -18.720868 0 CFG=1
M  V30 13 C 19.262982 20.812003 -16.666706 0
M  V30 14 N 18.529644 21.416057 -15.669832 0
M  V30 15 C 18.204777 22.686222 -18.037301 0
M  V30 16 C 23.825323 17.398754 -11.230493 0
M  V30 17 C 20.005437 21.399771 -19.187141 0 CFG=1
M  V30 18 C 20.130374 22.232269 -11.932992 0
M  V30 19 C 23.043669 17.904985 -8.976677 0
M  V30 20 C 18.185095 19.647185 -12.173522 0
M  V30 21 C 21.859690 18.824176 -10.918759 0
M  V30 22 C 20.490155 20.147488 -19.977325 0 CFG=2
M  V30 23 C 18.842461 21.260588 -18.115843 0 CFG=2
M  V30 24 C 23.956758 17.268132 -9.836655 0
M  V30 25 O 21.106443 19.287782 -8.659228 0 CHG=-1
M  V30 26 F 23.177804 17.772871 -7.633717 0
M  V30 27 C 20.883880 21.175258 -11.107034 0
M  V30 28 C 19.325415 19.271579 -20.506533 0
M  V30 29 C 18.471240 19.769734 -13.686167 0
M  V30 30 C 19.335600 19.062601 -11.323916 0
M  V30 31 O 21.103743 22.177719 -18.741703 0
M  V30 32 C 18.325383 19.011063 -19.356435 0
M  V30 33 H 17.992387 21.826002 -13.777049 0
M  V30 34 H 20.630812 18.059008 -21.779808 0
M  V30 35 H 20.296647 17.318251 -20.220847 0
M  V30 36 H 19.063733 17.323030 -21.468450 0
M  V30 37 H 16.902256 19.331267 -16.944620 0
M  V30 38 H 16.084708 20.829385 -17.381182 0
M  V30 39 H 15.840502 19.382022 -18.333673 0
M  V30 40 H 20.922027 19.651472 -12.590104 0
M  V30 41 H 19.311088 20.041967 -22.556944 0
M  V30 42 H 17.763577 19.388695 -22.044669 0
M  V30 43 H 18.285484 20.964872 -21.486659 0
M  V30 44 H 17.291222 20.854401 -19.533797 0
M  V30 45 H 17.803776 22.064815 -15.937551 0
M  V30 46 H 17.981969 23.099067 -19.021604 0
M  V30 47 H 17.258954 22.711803 -17.497134 0
M  V30 48 H 18.879851 23.385549 -17.546102 0
M  V30 49 H 24.527600 16.906690 -11.885956 0
M  V30 50 H 19.600506 22.028760 -19.979252 0
M  V30 51 H 20.542065 23.209688 -11.679619 0
M  V30 52 H 19.078437 22.295071 -11.668147 0
M  V30 53 H 17.335002 18.975425 -12.046140 0
M  V30 54 H 17.829957 20.590109 -11.764948 0
M  V30 55 H 21.099898 20.483277 -20.817145 0
M  V30 56 H 24.759222 16.676133 -9.423821 0
M  V30 57 H 21.943610 21.424137 -11.178770 0
M  V30 58 H 20.620989 21.312437 -10.059980 0
M  V30 59 H 17.575039 19.423363 -14.202349 0
M  V30 60 H 19.240532 19.049008 -13.952826 0
M  V30 61 H 19.412194 18.002898 -11.569592 0
M  V30 62 H 19.054290 19.099442 -10.271875 0
M  V30 63 H 20.775239 22.934792 -18.284966 0
M  V30 64 H 18.795941 18.398886 -18.587153 0
M  V30 65 H 17.501033 18.406696 -19.738730 0
M  V30 END ATOM
M  V30 BEGIN BOND
M  V30 1 1 7 1
M  V30 2 1 11 2
M  V30 3 1 12 8
M  V30 4 2 13 5
M  V30 5 1 14 2
M  V30 6 1 14 13
M  V30 7 1 16 7
M  V30 8 1 18 11
M  V30 9 2 19 4
M  V30 10 1 21 4
M  V30 11 2 21 7
M  V30 12 1 21 9
M  V30 13 1 22 6
M  V30 14 1 22 17
M  V30 15 1 23 12
M  V30 16 1 23 13
M  V30 17 1 23 15 CFG=1
M  V30 18 1 23 17
M  V30 19 2 24 16
M  V30 20 1 24 19
M  V30 21 1 25 4
M  V30 22 1 26 19
M  V30 23 1 27 9
M  V30 24 1 27 18
M  V30 25 1 28 3
M  V30 26 1 28 10
M  V30 27 1 28 22
M  V30 28 1 29 2
M  V30 29 1 29 20
M  V30 30 1 30 9
M  V30 31 1 30 20
M  V30 32 1 31 17
M  V30 33 1 32 12
M  V30 34 1 32 28
M  V30 35 1 2 33 CFG=1
M  V30 36 1 34 3
M  V30 37 1 35 3
M  V30 38 1 36 3
M  V30 39 1 37 8
M  V30 40 1 38 8
M  V30 41 1 39 8
M  V30 42 1 9 40 CFG=3
M  V30 43 1 41 10
M  V30 44 1 42 10
M  V30 45 1 43 10
M  V30 46 1 12 44 CFG=3
M  V30 47 1 45 14
M  V30 48 1 46 15
M  V30 49 1 47 15
M  V30 50 1 48 15
M  V30 51 1 49 16
M  V30 52 1 17 50 CFG=3
M  V30 53 1 51 18
M  V30 54 1 52 18
M  V30 55 1 53 20
M  V30 56 1 54 20
M  V30 57 1 22 55 CFG=3
M  V30 58 1 56 24
M  V30 59 1 57 27
M  V30 60 1 58 27
M  V30 61 1 59 29
M  V30 62 1 60 29
M  V30 63 1 61 30
M  V30 64 1 62 30
M  V30 65 1 63 31
M  V30 66 1 64 32
M  V30 67 1 65 32
M  V30 END BOND
M  V30 END CTAB
M  END
>  <i_epik_Tot_Q>  (1) 
-1

>  <i_epik_Tot_abs_Q>  (1) 
1

>  <i_i_glide_confnum>  (1) 
57

>  <i_i_glide_lignum>  (1) 
187

>  <i_i_glide_posenum>  (1) 
30

>  <i_i_glide_rotatable_bonds>  (1) 
5

>  <i_lp_mmshare_version>  (1) 
72125

>  <i_m_source_file_index>  (1) 
93

>  <i_f3d_flags>  (1) 
0

>  <num_sample>  (1) 
100

>  <b_lp_Chiralities_Consistent>  (1) 
1

>  <r_epik_Charging_Adjusted_Penalty>  (1) 
1.873832089241678

>  <r_epik_Ionization_Penalty>  (1) 
0.93691654502727262

>  <r_epik_Ionization_Penalty_Charging>  (1) 
0.93691604462083899

>  <r_epik_Ionization_Penalty_Neutral>  (1) 
5.0040643357861175e-07

>  <r_epik_State_Penalty>  (1) 
0.93691604462083899

>  <r_glide_ring_energy>  (1) 
0

>  <r_i_docking_score>  (1) 
-0.76935692755720309

>  <r_i_glide_ecoul>  (1) 
-1.103897961174805

>  <r_i_glide_eff_state_penalty>  (1) 
0.93691604462083899

>  <r_i_glide_einternal>  (1) 
9.3011042273096898

>  <r_i_glide_emodel>  (1) 
-18.363950920150167

>  <r_i_glide_emodel_strain>  (1) 
0

>  <r_i_glide_energy>  (1) 
-20.778536849998041

>  <r_i_glide_erotb>  (1) 
0.34068725043507714

>  <r_i_glide_esite>  (1) 
0

>  <r_i_glide_evdw>  (1) 
-19.674638888823235

>  <r_i_glide_gscore>  (1) 
-1.7062729721780421

>  <r_i_glide_gscore_strain>  (1) 
0

>  <r_i_glide_hbond>  (1) 
0

>  <r_i_glide_ligand_efficiency>  (1) 
-0.024042403986162596

>  <r_i_glide_ligand_efficiency_ln>  (1) 
-0.17227998795783381

>  <r_i_glide_ligand_efficiency_sa>  (1) 
-0.076329874758957889

>  <r_i_glide_lipo>  (1) 
-0.75237735901342184

>  <r_i_glide_metal>  (1) 
-0

>  <r_i_glide_rewards>  (1) 
-0.1452662249823147

>  <r_lp_Energy>  (1) 
80.447412999999997

>  <s_epik_Chemistry_Notes>  (1) 
This compound contains an acetal/aminal-like group ( X-CH(R)-Y where X, Y are N, S, or O) that may be acid/base labile, releasing an aldehyde.

>  <s_epik_cmdline>  (1) 
J2VwaWtfcHl0aG9uJywgJy1waHQnLCAnMS4wJywgJy1waCcsICc3LjQnLCAnLXRuJywgJzgnLCAnLW1hJywgJzUwMCcsICctaW1hZScsICc8aW5maWxlLm1hZT4nLCAnLW9tYWUnLCAnPG91dGZpbGUubWFlPic=

>  <s_epik_input>  (1) 
W09IXWMxYyhGKVtjSF1bY0hdYyhGKWMxW0NAQEhdKFtDSDJdW0NIMl1bQ0gyXTIpW0NIMl1bQ0gyXVNbQ0BIXTJbTkhdQyg9UylbQ0BdMyhbQ0gzXSlbQ0BIXShbQ0gzXSlbQ0gyXUMoW0NIM10pKFtDSDNdKVtDQEhdKEYpW0NAQEhdM1tPSF0=

>  <s_glide_docking_method>  (1) 
confgen

>  <s_i_glide_gridfile>  (1) 
gpcr_drd2_6luq_protein_autoprepared_prepared

>  <s_lp_Force_Field>  (1) 
S-OPLS

>  <s_lp_Variant>  (1) 
DiffSBDD_92_num_sample_100-2

>  <s_m_source_file>  (1) 
generated__ligand_DiffSBDD_2026-05-06_prepared.sdf

>  <GenAI_Model>  (1) 
DiffSBDD

>  <Protein>  (1) 
generic_title2

$$$$
DiffSBDD_89_num_sample_100
     RDKit          3D

  0  0  0  0  0  0  0  0  0  0999 V3000
M  V30 BEGIN CTAB
M  V30 COUNTS 74 79 0 0 1
M  V30 BEGIN ATOM
M  V30 1 C 16.803961 7.095015 -21.255040 0
M  V30 2 C 18.522331 8.909662 -20.478119 0
M  V30 3 C 17.069642 8.379816 -20.458304 0
M  V30 4 C 18.573430 6.403569 -18.581366 0
M  V30 5 C 20.806880 8.225091 -21.115376 0 CFG=1
M  V30 6 C 24.002249 9.234900 -19.369575 0 CFG=2
M  V30 7 C 14.572934 2.718088 -18.056775 0
M  V30 8 C 21.731718 9.383482 -20.805750 0 CFG=2
M  V30 9 C 14.051498 1.353444 -18.476300 0
M  V30 10 C 15.273818 4.249939 -16.291650 0
M  V30 11 C 22.887045 9.965745 -21.613096 0
M  V30 12 C 20.557219 7.840446 -22.567689 0
M  V30 13 C 14.567606 3.440432 -20.503820 0
M  V30 14 C 23.572874 10.412012 -18.479490 0
M  V30 15 C 15.539693 5.243193 -17.248407 0
M  V30 16 C 22.180448 7.930446 -20.527607 0 CFG=1
M  V30 17 C 21.802731 12.116111 -17.912919 0
M  V30 18 C 19.750300 7.275005 -19.046784 0
M  V30 19 C 14.831012 3.720128 -19.028896 0
M  V30 20 C 21.287601 10.395300 -19.717360 0
M  V30 21 C 15.767048 7.178758 -22.365436 0
M  V30 22 C 18.049452 5.431396 -19.655164 0
M  V30 23 C 16.737704 5.835708 -20.379569 0 CFG=1
M  V30 24 C 17.215345 7.000724 -22.713249 0
M  V30 25 C 22.393963 11.240452 -19.030353 0 CFG=2
M  V30 26 N 19.572478 7.890720 -20.365168 0
M  V30 27 C 24.223157 9.703616 -20.848374 0
M  V30 28 C 22.978177 8.057993 -19.245147 0
M  V30 29 O 15.589580 5.976552 -19.534679 0
M  V30 30 C 15.326994 4.986884 -18.616104 0
M  V30 31 C 14.796557 2.990008 -16.691985 0
M  V30 32 H 18.641373 9.661859 -19.699201 0
M  V30 33 H 18.654806 9.441477 -21.419956 0
M  V30 34 H 16.701967 8.273977 -19.440878 0
M  V30 35 H 16.441011 9.172037 -20.865378 0
M  V30 36 H 17.775373 7.004399 -18.154534 0
M  V30 37 H 18.932858 5.814286 -17.737341 0
M  V30 38 H 24.956512 8.878832 -18.977920 0
M  V30 39 H 14.058280 0.655750 -17.638005 0
M  V30 40 H 13.025001 1.430175 -18.835245 0
M  V30 41 H 14.669659 0.925297 -19.265888 0
M  V30 42 H 15.434778 4.456285 -15.246523 0
M  V30 43 H 22.723439 11.028029 -21.793651 0
M  V30 44 H 22.928827 9.506497 -22.600340 0
M  V30 45 H 21.485816 7.820729 -23.136774 0
M  V30 46 H 20.114483 6.845747 -22.631450 0
M  V30 47 H 19.895652 8.558102 -23.050311 0
M  V30 48 H 13.694890 2.804124 -20.645036 0
M  V30 49 H 14.358256 4.358600 -21.052012 0
M  V30 50 H 15.426888 2.946681 -20.957674 0
M  V30 51 H 23.329299 10.029578 -17.491729 0
M  V30 52 H 24.424071 11.077201 -18.328355 0
M  V30 53 H 15.906601 6.208181 -16.932969 0
M  V30 54 H 22.788761 7.409848 -21.266453 0
M  V30 55 H 21.348471 11.508725 -17.129055 0
M  V30 56 H 22.571910 12.733737 -17.448417 0
M  V30 57 H 21.034954 12.787091 -18.293777 0
M  V30 58 H 19.961610 8.029273 -18.291702 0
M  V30 59 H 20.612759 6.610309 -19.086670 0
M  V30 60 H 20.567864 11.074399 -20.175162 0
M  V30 61 H 20.746500 9.875073 -18.933895 0
M  V30 62 H 15.109839 6.324775 -22.516686 0
M  V30 63 H 15.318190 8.145374 -22.585731 0
M  V30 64 H 17.894462 4.459715 -19.185856 0
M  V30 65 H 18.827311 5.247679 -20.397438 0
M  V30 66 H 16.542029 5.015738 -21.066729 0
M  V30 67 H 17.707142 7.855638 -23.169447 0
M  V30 68 H 17.530947 6.029203 -23.088059 0
M  V30 69 H 22.799825 11.931223 -19.769090 0
M  V30 70 H 24.859831 10.588289 -20.882803 0
M  V30 71 H 24.776553 8.924499 -21.374353 0
M  V30 72 H 22.317242 8.169571 -18.386288 0
M  V30 73 H 23.514149 7.120198 -19.092520 0
M  V30 74 H 14.596293 2.230775 -15.949879 0
M  V30 END ATOM
M  V30 BEGIN BOND
M  V30 1 1 3 1
M  V30 2 1 3 2
M  V30 3 1 8 5
M  V30 4 1 9 7
M  V30 5 1 8 11 CFG=3
M  V30 6 1 5 12 CFG=3
M  V30 7 1 14 6
M  V30 8 1 15 10
M  V30 9 1 16 5
M  V30 10 1 16 8
M  V30 11 1 18 4
M  V30 12 2 19 7
M  V30 13 1 19 13
M  V30 14 1 20 8
M  V30 15 1 21 1
M  V30 16 1 22 4
M  V30 17 1 23 1
M  V30 18 1 23 22
M  V30 19 1 24 1
M  V30 20 1 24 21
M  V30 21 1 25 14
M  V30 22 1 25 17
M  V30 23 1 25 20
M  V30 24 1 26 2
M  V30 25 1 26 5
M  V30 26 1 26 18
M  V30 27 1 27 6
M  V30 28 1 27 11
M  V30 29 1 28 6
M  V30 30 1 28 16
M  V30 31 1 29 23
M  V30 32 2 30 15
M  V30 33 1 30 19
M  V30 34 1 30 29
M  V30 35 1 31 7
M  V30 36 2 31 10
M  V30 37 1 32 2
M  V30 38 1 33 2
M  V30 39 1 34 3
M  V30 40 1 35 3
M  V30 41 1 36 4
M  V30 42 1 37 4
M  V30 43 1 6 38 CFG=1
M  V30 44 1 39 9
M  V30 45 1 40 9
M  V30 46 1 41 9
M  V30 47 1 42 10
M  V30 48 1 43 11
M  V30 49 1 44 11
M  V30 50 1 45 12
M  V30 51 1 46 12
M  V30 52 1 47 12
M  V30 53 1 48 13
M  V30 54 1 49 13
M  V30 55 1 50 13
M  V30 56 1 51 14
M  V30 57 1 52 14
M  V30 58 1 53 15
M  V30 59 1 16 54 CFG=3
M  V30 60 1 55 17
M  V30 61 1 56 17
M  V30 62 1 57 17
M  V30 63 1 58 18
M  V30 64 1 59 18
M  V30 65 1 60 20
M  V30 66 1 61 20
M  V30 67 1 62 21
M  V30 68 1 63 21
M  V30 69 1 64 22
M  V30 70 1 65 22
M  V30 71 1 23 66 CFG=3
M  V30 72 1 67 24
M  V30 73 1 68 24
M  V30 74 1 25 69 CFG=3
M  V30 75 1 70 27
M  V30 76 1 71 27
M  V30 77 1 72 28
M  V30 78 1 73 28
M  V30 79 1 74 31
M  V30 END BOND
M  V30 END CTAB
M  END
>  <i_epik_Tot_Q>  (1) 
0

>  <i_epik_Tot_abs_Q>  (1) 
0

>  <i_i_glide_confnum>  (1) 
106

>  <i_i_glide_lignum>  (1) 
180

>  <i_i_glide_posenum>  (1) 
123

>  <i_i_glide_rotatable_bonds>  (1) 
3

>  <i_lp_mmshare_version>  (1) 
72125

>  <i_m_source_file_index>  (1) 
90

>  <i_f3d_flags>  (1) 
0

>  <num_sample>  (1) 
100

>  <b_lp_Chiralities_Consistent>  (1) 
1

>  <r_epik_Charging_Adjusted_Penalty>  (1) 
1.2690052337476654

>  <r_epik_Ionization_Penalty>  (1) 
1.2690052337476654

>  <r_epik_Ionization_Penalty_Charging>  (1) 
0

>  <r_epik_Ionization_Penalty_Neutral>  (1) 
1.2690052337476654

>  <r_epik_State_Penalty>  (1) 
1.2690052337476654

>  <r_glide_ring_energy>  (1) 
2.3444449692425784

>  <r_i_docking_score>  (1) 
-0.70408717251696129

>  <r_i_glide_ecoul>  (1) 
-0.68845884456324791

>  <r_i_glide_eff_state_penalty>  (1) 
1.2690052337476654

>  <r_i_glide_einternal>  (1) 
6.2315105919383083

>  <r_i_glide_emodel>  (1) 
-16.778892866793555

>  <r_i_glide_emodel_strain>  (1) 
0

>  <r_i_glide_energy>  (1) 
-17.903299850762867

>  <r_i_glide_erotb>  (1) 
0.33412944557780477

>  <r_i_glide_esite>  (1) 
0

>  <r_i_glide_evdw>  (1) 
-17.21484100619962

>  <r_i_glide_gscore>  (1) 
-1.9730924062646267

>  <r_i_glide_gscore_strain>  (1) 
0

>  <r_i_glide_hbond>  (1) 
0

>  <r_i_glide_ligand_efficiency>  (1) 
-0.022712489436031009

>  <r_i_glide_ligand_efficiency_ln>  (1) 
-0.158793235083031

>  <r_i_glide_ligand_efficiency_sa>  (1) 
-0.071348574881991728

>  <r_i_glide_lipo>  (1) 
-0.80915752030250698

>  <r_i_glide_metal>  (1) 
-0

>  <r_i_glide_rewards>  (1) 
-0.53405345454545594

>  <r_lp_Energy>  (1) 
72.584220999999999

>  <r_lp_tautomer_probability>  (1) 
1

>  <s_epik_cmdline>  (1) 
J2VwaWtfcHl0aG9uJywgJy1waHQnLCAnMS4wJywgJy1waCcsICc3LjQnLCAnLXRuJywgJzgnLCAnLW1hJywgJzUwMCcsICctaW1hZScsICc8aW5maWxlLm1hZT4nLCAnLW9tYWUnLCAnPG91dGZpbGUubWFlPic=

>  <s_epik_input>  (1) 
W0NIM11bQ0BIXShbQ0gyXTEpW0NIMl1bQ0BIXShbQ0gyXVtDSDJdMilbQ0gyXVtDQEhdKFtDQEBdMTIzKVtDQEBdMyhbQ0gzXSlOKFtDSDJdW0NIMl1DNDVbQ0gyXVtDSDJdNSlbQ0gyXVtDSDJdW0NIMl1bQ0BIXTRPYyhbY0hdW2NIXVtjSF02KWMoW0NIM10pYzZbQ0gzXQ==

>  <s_glide_docking_method>  (1) 
confgen

>  <s_i_glide_gridfile>  (1) 
gpcr_drd2_6luq_protein_autoprepared_prepared

>  <s_lp_Force_Field>  (1) 
S-OPLS

>  <s_lp_Variant>  (1) 
DiffSBDD_89_num_sample_100-2

>  <s_m_source_file>  (1) 
generated__ligand_DiffSBDD_2026-05-06_prepared.sdf

>  <GenAI_Model>  (1) 
DiffSBDD

>  <Protein>  (1) 
generic_title2

$$$$
DiffSBDD_66_num_sample_100
     RDKit          3D

  0  0  0  0  0  0  0  0  0  0999 V3000
M  V30 BEGIN CTAB
M  V30 COUNTS 88 91 0 0 1
M  V30 BEGIN ATOM
M  V30 1 C 9.831569 4.894295 -15.054414 0
M  V30 2 F 8.201423 0.268205 -16.155612 0
M  V30 3 C 7.772885 3.326821 -14.435727 0 CFG=1
M  V30 4 N 7.654950 4.829911 -11.790403 0
M  V30 5 C 9.033876 6.385272 -10.269358 0
M  V30 6 F 5.841767 2.203824 -13.477756 0
M  V30 7 O 8.234851 -2.217441 -19.487380 0
M  V30 8 N 9.067242 5.998210 -7.867362 0
M  V30 9 O 9.644053 -1.067685 -17.288888 0
M  V30 10 C 6.774577 3.769201 -11.938749 0
M  V30 11 O 10.379138 7.587303 -8.710291 0
M  V30 12 C 6.760074 3.597362 -15.577451 0
M  V30 13 C 10.511540 7.598228 -7.255184 0
M  V30 14 C 6.906105 4.583464 -16.753034 0
M  V30 15 O 8.627073 8.135117 -11.892277 0
M  V30 16 C 7.970773 5.273817 -10.460737 0
M  V30 17 O 5.907306 3.473294 -11.103948 0
M  V30 18 C 9.589468 7.222304 -11.401967 0
M  V30 19 C 5.918292 5.762250 -16.758264 0
M  V30 20 C 7.181782 -1.790163 -19.016658 0
M  V30 21 C 9.553928 6.514733 -6.643494 0
M  V30 22 O 7.434840 8.169296 -14.314821 0
M  V30 23 C 7.824131 2.041808 -18.590798 0
M  V30 24 C 5.332877 -4.699028 -17.777418 0
M  V30 25 C 9.027183 0.195666 -17.226745 0 CFG=1
M  V30 26 O 7.435682 4.728406 -9.492046 0
M  V30 27 C 8.819668 4.355564 -13.983782 0 CFG=2
M  V30 28 N 6.147390 -2.580721 -18.691629 0
M  V30 29 C 9.997786 3.435226 -18.583339 0 CFG=2
M  V30 30 C 6.873884 6.102734 -13.671025 0
M  V30 31 C 6.294325 7.081086 -16.099502 0 CFG=1
M  V30 32 O 10.152936 4.732802 -19.183250 0
M  V30 33 C 5.075578 7.981921 -15.868053 0
M  V30 34 C 7.752751 4.368382 -17.780832 0
M  V30 35 C 8.275561 0.559665 -18.529658 0 CFG=1
M  V30 36 C 8.151846 5.411324 -13.072182 0 CFG=1
M  V30 37 C 6.969694 2.855696 -13.185678 0 CFG=2
M  V30 38 C 9.462292 6.621421 -8.988299 0
M  V30 39 C 6.167686 -4.027855 -18.870901 0
M  V30 40 C 10.153313 3.616192 -20.073983 0
M  V30 41 C 8.660937 3.152827 -17.903424 0 CFG=1
M  V30 42 C 7.219615 6.944000 -14.883688 0 CFG=1
M  V30 43 C 6.995377 -0.293756 -18.773533 0
M  V30 44 H 9.393899 5.255201 -15.974418 0
M  V30 45 H 10.446140 5.695273 -14.643902 0
M  V30 46 H 10.544045 4.169348 -15.421657 0
M  V30 47 H 8.334241 2.455820 -14.767639 0
M  V30 48 H 8.248857 5.397314 -7.869605 0
M  V30 49 H 9.237614 -1.567004 -17.987731 0
M  V30 50 H 6.564084 2.616734 -16.012294 0
M  V30 51 H 5.834796 3.861490 -15.091546 0
M  V30 52 H 11.547980 7.384692 -6.990713 0
M  V30 53 H 10.275822 8.590571 -6.871431 0
M  V30 54 H 8.023074 8.314113 -11.175071 0
M  V30 55 H 10.290751 6.714382 -12.064312 0
M  V30 56 H 10.313496 7.905134 -10.968324 0
M  V30 57 H 5.650100 5.961601 -17.797106 0
M  V30 58 H 4.992577 5.434973 -16.301367 0
M  V30 59 H 10.088936 5.769516 -6.058450 0
M  V30 60 H 8.738134 6.946206 -6.066856 0
M  V30 61 H 7.940011 8.069918 -13.508961 0
M  V30 62 H 6.826180 2.081488 -18.152512 0
M  V30 63 H 7.653716 2.308782 -19.633773 0
M  V30 64 H 5.293648 -5.778424 -17.919459 0
M  V30 65 H 5.756737 -4.511425 -16.789806 0
M  V30 66 H 4.308524 -4.326773 -17.773085 0
M  V30 67 H 9.849818 0.890106 -17.077488 0
M  V30 68 H 9.473393 3.813618 -13.298144 0
M  V30 69 H 5.312446 -2.165259 -18.305415 0
M  V30 70 H 10.876721 3.099215 -18.036566 0
M  V30 71 H 6.412414 6.723724 -12.896393 0
M  V30 72 H 6.052432 5.440465 -13.896978 0
M  V30 73 H 6.849964 7.593720 -16.877741 0
M  V30 74 H 4.637890 7.798579 -14.893300 0
M  V30 75 H 5.368799 9.029068 -15.891660 0
M  V30 76 H 4.317240 7.843338 -16.638326 0
M  V30 77 H 7.771739 5.068338 -18.603102 0
M  V30 78 H 8.971962 0.406412 -19.356352 0
M  V30 79 H 8.862300 6.165782 -13.187908 0
M  V30 80 H 7.579118 2.053528 -12.764229 0
M  V30 81 H 5.751411 -4.259946 -19.851933 0
M  V30 82 H 7.182535 -4.427543 -18.847765 0
M  V30 83 H 11.117125 3.397005 -20.525440 0
M  V30 84 H 9.282785 3.559990 -20.722737 0
M  V30 85 H 8.896473 2.846100 -16.890161 0
M  V30 86 H 8.156365 6.619799 -15.273583 0
M  V30 87 H 6.312611 -0.167063 -17.931224 0
M  V30 88 H 6.469374 0.090474 -19.649016 0
M  V30 END ATOM
M  V30 BEGIN BOND
M  V30 1 1 10 4
M  V30 2 1 12 3
M  V30 3 1 13 11
M  V30 4 1 14 12
M  V30 5 1 16 4
M  V30 6 1 16 5
M  V30 7 2 17 10
M  V30 8 1 18 5
M  V30 9 1 18 15
M  V30 10 1 19 14
M  V30 11 2 20 7
M  V30 12 1 21 8
M  V30 13 1 21 13
M  V30 14 1 25 2
M  V30 15 1 25 9
M  V30 16 2 26 16
M  V30 17 1 27 1
M  V30 18 1 27 3
M  V30 19 1 28 20
M  V30 20 1 31 19
M  V30 21 1 32 29
M  V30 22 1 33 31
M  V30 23 2 34 14
M  V30 24 1 35 23
M  V30 25 1 35 25
M  V30 26 1 36 4
M  V30 27 1 36 27
M  V30 28 1 36 30
M  V30 29 1 37 3
M  V30 30 1 37 6
M  V30 31 1 37 10
M  V30 32 2 38 5
M  V30 33 1 38 8
M  V30 34 1 38 11
M  V30 35 1 39 24
M  V30 36 1 39 28
M  V30 37 1 40 29
M  V30 38 1 40 32
M  V30 39 1 41 23
M  V30 40 1 41 29
M  V30 41 1 41 34
M  V30 42 1 42 22
M  V30 43 1 42 30
M  V30 44 1 42 31
M  V30 45 1 43 20
M  V30 46 1 43 35
M  V30 47 1 44 1
M  V30 48 1 45 1
M  V30 49 1 46 1
M  V30 50 1 3 47 CFG=3
M  V30 51 1 48 8
M  V30 52 1 49 9
M  V30 53 1 50 12
M  V30 54 1 51 12
M  V30 55 1 52 13
M  V30 56 1 53 13
M  V30 57 1 54 15
M  V30 58 1 55 18
M  V30 59 1 56 18
M  V30 60 1 57 19
M  V30 61 1 58 19
M  V30 62 1 59 21
M  V30 63 1 60 21
M  V30 64 1 61 22
M  V30 65 1 62 23
M  V30 66 1 63 23
M  V30 67 1 64 24
M  V30 68 1 65 24
M  V30 69 1 66 24
M  V30 70 1 25 67 CFG=1
M  V30 71 1 27 68 CFG=1
M  V30 72 1 69 28
M  V30 73 1 29 70 CFG=1
M  V30 74 1 71 30
M  V30 75 1 72 30
M  V30 76 1 31 73 CFG=3
M  V30 77 1 74 33
M  V30 78 1 75 33
M  V30 79 1 76 33
M  V30 80 1 77 34
M  V30 81 1 35 78 CFG=3
M  V30 82 1 36 79 CFG=1
M  V30 83 1 37 80 CFG=1
M  V30 84 1 81 39
M  V30 85 1 82 39
M  V30 86 1 83 40
M  V30 87 1 84 40
M  V30 88 1 41 85 CFG=1
M  V30 89 1 42 86 CFG=3
M  V30 90 1 87 43
M  V30 91 1 88 43
M  V30 END BOND
M  V30 END CTAB
M  END
>  <i_epik_Tot_Q>  (1) 
0

>  <i_epik_Tot_abs_Q>  (1) 
0

>  <i_i_glide_confnum>  (1) 
1625

>  <i_i_glide_lignum>  (1) 
130

>  <i_i_glide_posenum>  (1) 
125

>  <i_i_glide_rotatable_bonds>  (1) 
15

>  <i_lp_mmshare_version>  (1) 
72125

>  <i_m_source_file_index>  (1) 
67

>  <i_f3d_flags>  (1) 
0

>  <num_sample>  (1) 
100

>  <b_lp_Chiralities_Consistent>  (1) 
1

>  <r_epik_Charging_Adjusted_Penalty>  (1) 
0.011224841026204068

>  <r_epik_Ionization_Penalty>  (1) 
0.011270599783865109

>  <r_epik_Ionization_Penalty_Charging>  (1) 
8.5422756824624084e-11

>  <r_epik_Ionization_Penalty_Neutral>  (1) 
0.011270599698442352

>  <r_epik_State_Penalty>  (1) 
0.01122484094078131

>  <r_glide_ring_energy>  (1) 
0

>  <r_i_docking_score>  (1) 
-0.69552557792966674

>  <r_i_glide_ecoul>  (1) 
-3.6630712873668245

>  <r_i_glide_eff_state_penalty>  (1) 
0.01122484094078131

>  <r_i_glide_einternal>  (1) 
31.162271220464998

>  <r_i_glide_emodel>  (1) 
10.577605296921258

>  <r_i_glide_emodel_strain>  (1) 
15.939953290350843

>  <r_i_glide_energy>  (1) 
-19.804160104262255

>  <r_i_glide_erotb>  (1) 
0.43215163049877869

>  <r_i_glide_esite>  (1) 
-0.16728281493879169

>  <r_i_glide_evdw>  (1) 
-16.141088816895429

>  <r_i_glide_gscore>  (1) 
-0.70675041887044809

>  <r_i_glide_gscore_strain>  (1) 
2.9849883225877107

>  <r_i_glide_hbond>  (1) 
-0.13247147232017389

>  <r_i_glide_ligand_efficiency>  (1) 
-0.016175013440224806

>  <r_i_glide_ligand_efficiency_ln>  (1) 
-0.14608198795029009

>  <r_i_glide_ligand_efficiency_sa>  (1) 
-0.056667510713212799

>  <r_i_glide_lipo>  (1) 
-1.6400563912139108

>  <r_i_glide_metal>  (1) 
-0

>  <r_i_glide_rewards>  (1) 
-0.82756455953426566

>  <r_lp_Energy>  (1) 
55.849022999999995

>  <r_lp_tautomer_probability>  (1) 
0.49997499999946832

>  <s_epik_Chemistry_Notes>  (1) 
This compound has an imine and may undergo hydrolysis.

>  <s_epik_cmdline>  (1) 
J2VwaWtfcHl0aG9uJywgJy1waHQnLCAnMS4wJywgJy1waCcsICc3LjQnLCAnLXRuJywgJzgnLCAnLW1hJywgJzUwMCcsICctaW1hZScsICc8aW5maWxlLm1hZT4nLCAnLW9tYWUnLCAnPG91dGZpbGUubWFlPic=

>  <s_epik_input>  (1) 
TzFbQ0gyXVtDSDJdTj1DMVtDQEhdKFtDSDJdW09IXSlDKD1PKU4oQyg9TylbQ0BIXTJGKVtDQEBIXShbQ0BASF0zW0NIM10pW0NIMl1bQ0BIXShbT0hdKVtDQEhdKFtDSDNdKVtDSDJdQyhcW0NIMl1bQ0BIXTIzKT1bQ0hdXFtDQEhdKFtDQEBIXTRPW0NIMl00KVtDSDJdW0NAQEhdKFtDQEBIXShGKVtPSF0pW0NIMl1DKD1PKVtOSF1bQ0gyXVtDSDNd

>  <s_glide_docking_method>  (1) 
confgen

>  <s_i_glide_gridfile>  (1) 
gpcr_drd2_6luq_protein_autoprepared_prepared

>  <s_lp_Force_Field>  (1) 
S-OPLS

>  <s_lp_Variant>  (1) 
DiffSBDD_66_num_sample_100-2

>  <s_m_source_file>  (1) 
generated__ligand_DiffSBDD_2026-05-06_prepared.sdf

>  <GenAI_Model>  (1) 
DiffSBDD

>  <Protein>  (1) 
generic_title2

$$$$
DiffSBDD_46_num_sample_100
     RDKit          3D

  0  0  0  0  0  0  0  0  0  0999 V3000
M  V30 BEGIN CTAB
M  V30 COUNTS 40 39 0 0 1
M  V30 BEGIN ATOM
M  V30 1 C 12.086581 7.806461 -3.553173 0
M  V30 2 C 11.396990 7.212979 -6.520506 0
M  V30 3 N 12.580037 8.787484 -3.190210 0
M  V30 4 C 8.896719 4.336754 -11.595079 0
M  V30 5 C 9.912893 6.017757 -8.226309 0
M  V30 6 C 6.058858 6.360850 -13.372525 0 CFG=2
M  V30 7 C 7.492340 4.648614 -12.106310 0
M  V30 8 C 10.535117 7.347479 -7.788834 0
M  V30 9 C 10.619454 6.729497 -5.288965 0
M  V30 10 O 6.978445 8.048055 -11.891671 0
M  V30 11 C 11.455330 6.560403 -4.014466 0
M  V30 12 O 6.053316 7.149586 -14.541560 0
M  V30 13 C 9.463848 5.984982 -9.693048 0
M  V30 14 C 5.822394 7.284523 -12.162424 0
M  V30 15 O 6.492986 4.169337 -11.570108 0
M  V30 16 C 7.382209 5.572132 -13.317939 0
M  V30 17 C 9.061871 4.566990 -10.086982 0
M  V30 18 H 12.219253 6.525087 -6.715159 0
M  V30 19 H 11.837323 8.185830 -6.310579 0
M  V30 20 H 9.093912 3.286772 -11.811515 0
M  V30 21 H 9.640896 4.911634 -12.146380 0
M  V30 22 H 9.059334 5.786902 -7.588199 0
M  V30 23 H 10.639299 5.222979 -8.060927 0
M  V30 24 H 5.225570 5.661987 -13.456879 0
M  V30 25 H 11.168631 7.725853 -8.591690 0
M  V30 26 H 9.746139 8.087445 -7.644904 0
M  V30 27 H 9.823197 7.437626 -5.091758 0
M  V30 28 H 10.140602 5.779288 -5.506388 0
M  V30 29 H 7.034813 8.111359 -10.925282 0
M  V30 30 H 10.822879 6.192473 -3.204685 0
M  V30 31 H 12.234839 5.815576 -4.165357 0
M  V30 32 H 6.666455 7.856176 -14.399134 0
M  V30 33 H 10.257521 6.335947 -10.347080 0
M  V30 34 H 8.634891 6.660917 -9.858148 0
M  V30 35 H 5.595970 6.695492 -11.272404 0
M  V30 36 H 4.969415 7.944965 -12.315412 0
M  V30 37 H 7.488514 4.962039 -14.214227 0
M  V30 38 H 8.228815 6.259414 -13.304512 0
M  V30 39 H 8.151611 4.296332 -9.548913 0
M  V30 40 H 9.834352 3.879168 -9.742397 0
M  V30 END ATOM
M  V30 BEGIN BOND
M  V30 1 3 3 1
M  V30 2 1 7 4
M  V30 3 1 8 2
M  V30 4 1 8 5
M  V30 5 1 9 2
M  V30 6 1 11 1
M  V30 7 1 11 9
M  V30 8 1 12 6
M  V30 9 1 13 5
M  V30 10 1 14 6
M  V30 11 1 14 10
M  V30 12 2 15 7
M  V30 13 1 16 6
M  V30 14 1 16 7
M  V30 15 1 17 4
M  V30 16 1 17 13
M  V30 17 1 18 2
M  V30 18 1 19 2
M  V30 19 1 20 4
M  V30 20 1 21 4
M  V30 21 1 22 5
M  V30 22 1 23 5
M  V30 23 1 6 24 CFG=3
M  V30 24 1 25 8
M  V30 25 1 26 8
M  V30 26 1 27 9
M  V30 27 1 28 9
M  V30 28 1 29 10
M  V30 29 1 30 11
M  V30 30 1 31 11
M  V30 31 1 32 12
M  V30 32 1 33 13
M  V30 33 1 34 13
M  V30 34 1 35 14
M  V30 35 1 36 14
M  V30 36 1 37 16
M  V30 37 1 38 16
M  V30 38 1 39 17
M  V30 39 1 40 17
M  V30 END BOND
M  V30 END CTAB
M  END
>  <i_epik_Tot_Q>  (1) 
0

>  <i_epik_Tot_abs_Q>  (1) 
0

>  <i_i_glide_confnum>  (1) 
74

>  <i_i_glide_lignum>  (1) 
86

>  <i_i_glide_posenum>  (1) 
248

>  <i_i_glide_rotatable_bonds>  (1) 
13

>  <i_lp_mmshare_version>  (1) 
72125

>  <i_m_source_file_index>  (1) 
47

>  <i_f3d_flags>  (1) 
0

>  <num_sample>  (1) 
100

>  <b_lp_Chiralities_Consistent>  (1) 
1

>  <r_epik_Charging_Adjusted_Penalty>  (1) 
0

>  <r_epik_Ionization_Penalty>  (1) 
2.6084577227152967e-07

>  <r_epik_Ionization_Penalty_Charging>  (1) 
0

>  <r_epik_Ionization_Penalty_Neutral>  (1) 
2.6084577227152967e-07

>  <r_epik_State_Penalty>  (1) 
-0

>  <r_glide_ring_energy>  (1) 
0

>  <r_i_docking_score>  (1) 
-0.34352438295878229

>  <r_i_glide_ecoul>  (1) 
-8.0678174292953653

>  <r_i_glide_eff_state_penalty>  (1) 
-0

>  <r_i_glide_einternal>  (1) 
11.001176296538956

>  <r_i_glide_emodel>  (1) 
-24.579106999095309

>  <r_i_glide_emodel_strain>  (1) 
0.94814620376152092

>  <r_i_glide_energy>  (1) 
-30.322568786745599

>  <r_i_glide_erotb>  (1) 
5.9484059463234038

>  <r_i_glide_esite>  (1) 
0

>  <r_i_glide_evdw>  (1) 
-22.254751357450232

>  <r_i_glide_gscore>  (1) 
-0.34352438295878229

>  <r_i_glide_gscore_strain>  (1) 
0

>  <r_i_glide_hbond>  (1) 
-0.14690269566019479

>  <r_i_glide_ligand_efficiency>  (1) 
-0.020207316644634252

>  <r_i_glide_ligand_efficiency_ln>  (1) 
-0.089617861602055496

>  <r_i_glide_ligand_efficiency_sa>  (1) 
-0.051958701284949803

>  <r_i_glide_lipo>  (1) 
-1.1847124335673735

>  <r_i_glide_metal>  (1) 
-0

>  <r_i_glide_rewards>  (1) 
-2.6374050177878012

>  <r_lp_Energy>  (1) 
-1.415713

>  <r_lp_tautomer_probability>  (1) 
1

>  <s_epik_cmdline>  (1) 
J2VwaWtfcHl0aG9uJywgJy1waHQnLCAnMS4wJywgJy1waCcsICc3LjQnLCAnLXRuJywgJzgnLCAnLW1hJywgJzUwMCcsICctaW1hZScsICc8aW5maWxlLm1hZT4nLCAnLW9tYWUnLCAnPG91dGZpbGUubWFlPic=

>  <s_epik_input>  (1) 
TiNDW0NIMl1bQ0gyXVtDSDJdW0NIMl1bQ0gyXVtDSDJdW0NIMl1bQ0gyXUMoPU8pW0NIMl1bQ0BIXShbT0hdKVtDSDJdW09IXQ==

>  <s_glide_docking_method>  (1) 
confgen

>  <s_i_glide_gridfile>  (1) 
gpcr_drd2_6luq_protein_autoprepared_prepared

>  <s_lp_Force_Field>  (1) 
S-OPLS

>  <s_lp_Variant>  (1) 
DiffSBDD_46_num_sample_100-1

>  <s_m_source_file>  (1) 
generated__ligand_DiffSBDD_2026-05-06_prepared.sdf

>  <GenAI_Model>  (1) 
DiffSBDD

>  <Protein>  (1) 
generic_title2

$$$$
DiffSBDD_46_num_sample_100
     RDKit          3D

  0  0  0  0  0  0  0  0  0  0999 V3000
M  V30 BEGIN CTAB
M  V30 COUNTS 40 39 0 0 1
M  V30 BEGIN ATOM
M  V30 1 C 11.834839 7.055715 -3.585638 0
M  V30 2 C 10.542750 6.713409 -7.211109 0
M  V30 3 N 12.236986 7.562683 -2.626446 0
M  V30 4 C 8.288073 4.169301 -11.575899 0
M  V30 5 C 10.040655 7.146070 -9.715898 0
M  V30 6 C 7.505121 1.427996 -13.872669 0 CFG=2
M  V30 7 C 7.907692 3.845866 -13.026532 0
M  V30 8 C 10.039244 7.698023 -8.278498 0
M  V30 9 C 10.861102 7.404785 -5.876265 0
M  V30 10 O 6.234839 -0.230699 -12.588557 0
M  V30 11 C 11.324037 6.411045 -4.804542 0
M  V30 12 O 7.834839 1.678712 -15.225197 0
M  V30 13 C 9.237892 5.848262 -9.909206 0
M  V30 14 C 6.518694 0.243212 -13.886546 0
M  V30 15 O 8.384444 4.475237 -13.970749 0
M  V30 16 C 6.900310 2.708047 -13.251548 0
M  V30 17 C 9.030231 5.503640 -11.393519 0
M  V30 18 H 9.792168 5.938002 -7.051656 0
M  V30 19 H 11.434840 6.204841 -7.572696 0
M  V30 20 H 7.378347 4.170757 -10.975093 0
M  V30 21 H 8.921843 3.369296 -11.198171 0
M  V30 22 H 11.067080 6.989642 -10.047485 0
M  V30 23 H 9.626904 7.916430 -10.368075 0
M  V30 24 H 8.414532 1.141973 -13.340135 0
M  V30 25 H 10.659906 8.594308 -8.264017 0
M  V30 26 H 9.034839 8.028263 -8.013672 0
M  V30 27 H 11.635475 8.156185 -6.034943 0
M  V30 28 H 9.981057 7.939790 -5.517672 0
M  V30 29 H 5.696153 -1.010579 -12.691667 0
M  V30 30 H 10.495549 5.769302 -4.511312 0
M  V30 31 H 12.113568 5.769302 -5.194421 0
M  V30 32 H 8.204604 0.892954 -15.598576 0
M  V30 33 H 8.264694 5.941940 -9.424983 0
M  V30 34 H 9.749793 5.024981 -9.409582 0
M  V30 35 H 6.936243 -0.591412 -14.451571 0
M  V30 36 H 5.583949 0.520061 -14.376281 0
M  V30 37 H 6.091267 3.080301 -13.879768 0
M  V30 38 H 6.449570 2.461372 -12.291667 0
M  V30 39 H 9.995688 5.455078 -11.899434 0
M  V30 40 H 8.468311 6.308078 -11.870854 0
M  V30 END ATOM
M  V30 BEGIN BOND
M  V30 1 3 3 1
M  V30 2 1 7 4
M  V30 3 1 8 2
M  V30 4 1 8 5
M  V30 5 1 9 2
M  V30 6 1 11 1
M  V30 7 1 11 9
M  V30 8 1 12 6
M  V30 9 1 13 5
M  V30 10 1 14 6
M  V30 11 1 14 10
M  V30 12 2 15 7
M  V30 13 1 16 6
M  V30 14 1 16 7
M  V30 15 1 17 4
M  V30 16 1 17 13
M  V30 17 1 18 2
M  V30 18 1 19 2
M  V30 19 1 20 4
M  V30 20 1 21 4
M  V30 21 1 22 5
M  V30 22 1 23 5
M  V30 23 1 6 24 CFG=1
M  V30 24 1 25 8
M  V30 25 1 26 8
M  V30 26 1 27 9
M  V30 27 1 28 9
M  V30 28 1 29 10
M  V30 29 1 30 11
M  V30 30 1 31 11
M  V30 31 1 32 12
M  V30 32 1 33 13
M  V30 33 1 34 13
M  V30 34 1 35 14
M  V30 35 1 36 14
M  V30 36 1 37 16
M  V30 37 1 38 16
M  V30 38 1 39 17
M  V30 39 1 40 17
M  V30 END BOND
M  V30 END CTAB
M  END
>  <i_epik_Tot_Q>  (1) 
0

>  <i_epik_Tot_abs_Q>  (1) 
0

>  <i_i_glide_confnum>  (1) 
269

>  <i_i_glide_lignum>  (1) 
86

>  <i_i_glide_posenum>  (1) 
230

>  <i_i_glide_rotatable_bonds>  (1) 
13

>  <i_lp_mmshare_version>  (1) 
72125

>  <i_m_source_file_index>  (1) 
47

>  <i_f3d_flags>  (1) 
0

>  <num_sample>  (1) 
100

>  <b_lp_Chiralities_Consistent>  (1) 
1

>  <r_epik_Charging_Adjusted_Penalty>  (1) 
0

>  <r_epik_Ionization_Penalty>  (1) 
2.6084577227152967e-07

>  <r_epik_Ionization_Penalty_Charging>  (1) 
0

>  <r_epik_Ionization_Penalty_Neutral>  (1) 
2.6084577227152967e-07

>  <r_epik_State_Penalty>  (1) 
-0

>  <r_glide_ring_energy>  (1) 
0

>  <r_i_docking_score>  (1) 
-0.12197109927156247

>  <r_i_glide_ecoul>  (1) 
-3.2026407662086021

>  <r_i_glide_eff_state_penalty>  (1) 
-0

>  <r_i_glide_einternal>  (1) 
7.1145315619744762

>  <r_i_glide_emodel>  (1) 
-28.163473364838342

>  <r_i_glide_emodel_strain>  (1) 
0

>  <r_i_glide_energy>  (1) 
-31.470326440844719

>  <r_i_glide_erotb>  (1) 
5.9484059463234038

>  <r_i_glide_esite>  (1) 
0

>  <r_i_glide_evdw>  (1) 
-28.267685674636116

>  <r_i_glide_gscore>  (1) 
-0.12197109927156247

>  <r_i_glide_gscore_strain>  (1) 
0

>  <r_i_glide_hbond>  (1) 
-0.16

>  <r_i_glide_ligand_efficiency>  (1) 
-0.0071747705453860276

>  <r_i_glide_ligand_efficiency_ln>  (1) 
-0.031819543637113479

>  <r_i_glide_ligand_efficiency_sa>  (1) 
-0.01844835542054804

>  <r_i_glide_lipo>  (1) 
-1.1894768476315698

>  <r_i_glide_metal>  (1) 
-0

>  <r_i_glide_rewards>  (1) 
-2.8271197993003003

>  <r_lp_Energy>  (1) 
-1.415713

>  <r_lp_tautomer_probability>  (1) 
1

>  <s_epik_cmdline>  (1) 
J2VwaWtfcHl0aG9uJywgJy1waHQnLCAnMS4wJywgJy1waCcsICc3LjQnLCAnLXRuJywgJzgnLCAnLW1hJywgJzUwMCcsICctaW1hZScsICc8aW5maWxlLm1hZT4nLCAnLW9tYWUnLCAnPG91dGZpbGUubWFlPic=

>  <s_epik_input>  (1) 
TiNDW0NIMl1bQ0gyXVtDSDJdW0NIMl1bQ0gyXVtDSDJdW0NIMl1bQ0gyXUMoPU8pW0NIMl1bQ0BIXShbT0hdKVtDSDJdW09IXQ==

>  <s_glide_docking_method>  (1) 
confgen

>  <s_i_glide_gridfile>  (1) 
gpcr_drd2_6luq_protein_autoprepared_prepared

>  <s_lp_Force_Field>  (1) 
S-OPLS

>  <s_lp_Variant>  (1) 
DiffSBDD_46_num_sample_100-1

>  <s_m_source_file>  (1) 
generated__ligand_DiffSBDD_2026-05-06_prepared.sdf

>  <GenAI_Model>  (1) 
DiffSBDD

>  <Protein>  (1) 
generic_title2

$$$$
DiffSBDD_13_num_sample_100
     RDKit          3D

  0  0  0  0  0  0  0  0  0  0999 V3000
M  V30 BEGIN CTAB
M  V30 COUNTS 83 88 0 0 1
M  V30 BEGIN ATOM
M  V30 1 C 22.659253 11.033639 -20.007309 0
M  V30 2 C 22.984218 9.431002 -22.048402 0
M  V30 3 C 10.013497 5.369271 -17.484614 0
M  V30 4 F 22.844013 13.357771 -20.395206 0
M  V30 5 O 23.879548 14.537493 -18.018720 0 CHG=-1
M  V30 6 C 13.762022 6.738337 -20.468632 0 CFG=2
M  V30 7 C 22.018066 9.993678 -19.198984 0
M  V30 8 F 21.834595 12.685247 -18.558434 0
M  V30 9 C 21.620140 8.840069 -19.649763 0
M  V30 10 C 15.491209 6.428028 -18.473349 0
M  V30 11 C 19.062190 7.213680 -18.292341 0
M  V30 12 C 18.061433 8.329401 -20.257511 0 CFG=1
M  V30 13 C 17.787257 7.426309 -19.081339 0 CFG=2
M  V30 14 O 15.430194 8.871197 -21.146973 0
M  V30 15 C 10.288196 4.970524 -18.942237 0 CFG=1
M  V30 16 C 22.862373 12.422249 -19.408260 0
M  V30 17 C 24.526544 13.490533 -18.061706 0
M  V30 18 C 23.063859 10.785676 -21.295925 0
M  V30 19 O 17.239899 5.119146 -19.456024 0
M  V30 20 C 15.453616 8.690756 -19.742324 0 CFG=1
M  V30 21 O 24.054905 12.423408 -18.748924 0
M  V30 22 C 13.759765 4.086142 -19.916010 0
M  V30 23 C 20.113104 6.369665 -19.080227 0
M  V30 24 C 12.793666 4.079815 -18.717656 0
M  V30 25 C 18.174848 7.620099 -21.583886 0
M  V30 26 C 14.803223 10.002768 -19.229791 0
M  V30 27 O 25.605794 13.406431 -17.480368 0
M  V30 28 C 20.501540 6.793239 -20.537676 0 CFG=1
M  V30 29 C 13.489458 5.268614 -20.814507 0 CFG=2
M  V30 30 C 10.402066 6.170048 -19.927708 0
M  V30 31 O 14.634892 10.023048 -17.829122 0
M  V30 32 C 14.635859 7.384828 -19.332405 0 CFG=1
M  V30 33 C 11.319030 3.819335 -19.105437 0
M  V30 34 C 21.709457 8.536219 -22.057917 0
M  V30 35 C 19.351447 6.610531 -21.584744 0
M  V30 36 O 10.934667 5.641266 -16.717136 0
M  V30 37 C 21.297686 8.101511 -20.671859 0
M  V30 38 C 16.942785 8.687425 -19.302845 0 CFG=2
M  V30 39 C 16.880739 6.223619 -19.051077 0
M  V30 40 C 11.397969 7.318521 -19.616972 0
M  V30 41 C 12.493706 7.563756 -20.688060 0
M  V30 42 C 14.504913 6.025850 -21.602007 0
M  V30 43 H 23.214233 9.660637 -23.089056 0
M  V30 44 H 23.829105 8.833166 -21.704048 0
M  V30 45 H 8.963140 5.389815 -17.193952 0
M  V30 46 H 21.851431 10.221964 -18.156358 0
M  V30 47 H 15.005291 5.494530 -18.223433 0
M  V30 48 H 15.647564 6.909289 -17.507101 0
M  V30 49 H 18.826908 6.711604 -17.352681 0
M  V30 50 H 19.461182 8.186574 -18.009869 0
M  V30 51 H 18.853647 9.066570 -20.161261 0
M  V30 52 H 15.914523 9.654116 -21.360337 0
M  V30 53 H 9.348454 4.497691 -19.229603 0
M  V30 54 H 23.527819 11.588819 -21.850180 0
M  V30 55 H 13.623894 3.175463 -20.500127 0
M  V30 56 H 14.802024 4.060399 -19.611567 0
M  V30 57 H 21.024257 6.286021 -18.488681 0
M  V30 58 H 19.747662 5.348979 -19.137847 0
M  V30 59 H 13.115550 3.299555 -18.026990 0
M  V30 60 H 12.887550 5.012062 -18.165090 0
M  V30 61 H 17.246986 7.113788 -21.839042 0
M  V30 62 H 18.333395 8.376417 -22.353034 0
M  V30 63 H 15.405961 10.868377 -19.509460 0
M  V30 64 H 13.834893 10.169239 -19.685418 0
M  V30 65 H 21.239401 6.044625 -20.831251 0
M  V30 66 H 12.595191 5.078266 -21.402409 0
M  V30 67 H 10.551607 5.791616 -20.937930 0
M  V30 68 H 9.412193 6.626164 -19.975971 0
M  V30 69 H 13.706056 10.169254 -17.661583 0
M  V30 70 H 13.912846 7.720296 -18.593836 0
M  V30 71 H 11.261955 3.435939 -20.124285 0
M  V30 72 H 10.970456 2.986875 -18.492498 0
M  V30 73 H 20.876625 9.055444 -22.533186 0
M  V30 74 H 21.915281 7.650798 -22.659933 0
M  V30 75 H 18.936683 5.612210 -21.443781 0
M  V30 76 H 19.771123 6.582250 -22.590280 0
M  V30 77 H 17.172952 9.475815 -18.587411 0
M  V30 78 H 10.816106 8.238671 -19.543473 0
M  V30 79 H 11.834863 7.200270 -18.628528 0
M  V30 80 H 12.757224 8.614763 -20.710810 0
M  V30 81 H 12.094644 7.368415 -21.684166 0
M  V30 82 H 15.536416 5.722291 -21.460946 0
M  V30 83 H 14.251019 6.318340 -22.618743 0
M  V30 END ATOM
M  V30 BEGIN BOND
M  V30 1 1 7 1
M  V30 2 2 9 7
M  V30 3 1 13 11 CFG=1
M  V30 4 1 13 12
M  V30 5 1 15 3
M  V30 6 1 16 1
M  V30 7 1 16 4
M  V30 8 1 16 8
M  V30 9 1 17 5
M  V30 10 2 18 1
M  V30 11 1 18 2
M  V30 12 1 20 14 CFG=3
M  V30 13 1 21 16
M  V30 14 1 21 17
M  V30 15 1 23 11
M  V30 16 1 24 22
M  V30 17 1 25 12
M  V30 18 1 26 20
M  V30 19 2 27 17
M  V30 20 1 28 23
M  V30 21 1 29 6
M  V30 22 1 29 22
M  V30 23 1 30 15
M  V30 24 1 31 26
M  V30 25 1 32 6
M  V30 26 1 32 10
M  V30 27 1 32 20
M  V30 28 1 33 15
M  V30 29 1 33 24
M  V30 30 1 34 2
M  V30 31 1 35 25
M  V30 32 1 35 28
M  V30 33 2 36 3
M  V30 34 2 37 9
M  V30 35 1 37 28
M  V30 36 1 37 34
M  V30 37 1 38 12
M  V30 38 1 38 13
M  V30 39 1 38 20
M  V30 40 1 39 10
M  V30 41 1 39 13
M  V30 42 2 39 19
M  V30 43 1 40 30
M  V30 44 1 6 41 CFG=3
M  V30 45 1 41 40
M  V30 46 1 42 6
M  V30 47 1 42 29
M  V30 48 1 43 2
M  V30 49 1 44 2
M  V30 50 1 45 3
M  V30 51 1 46 7
M  V30 52 1 47 10
M  V30 53 1 48 10
M  V30 54 1 49 11
M  V30 55 1 50 11
M  V30 56 1 12 51 CFG=1
M  V30 57 1 52 14
M  V30 58 1 15 53 CFG=3
M  V30 59 1 54 18
M  V30 60 1 55 22
M  V30 61 1 56 22
M  V30 62 1 57 23
M  V30 63 1 58 23
M  V30 64 1 59 24
M  V30 65 1 60 24
M  V30 66 1 61 25
M  V30 67 1 62 25
M  V30 68 1 63 26
M  V30 69 1 64 26
M  V30 70 1 28 65 CFG=3
M  V30 71 1 29 66 CFG=3
M  V30 72 1 67 30
M  V30 73 1 68 30
M  V30 74 1 69 31
M  V30 75 1 32 70 CFG=1
M  V30 76 1 71 33
M  V30 77 1 72 33
M  V30 78 1 73 34
M  V30 79 1 74 34
M  V30 80 1 75 35
M  V30 81 1 76 35
M  V30 82 1 38 77 CFG=1
M  V30 83 1 78 40
M  V30 84 1 79 40
M  V30 85 1 80 41
M  V30 86 1 81 41
M  V30 87 1 82 42
M  V30 88 1 83 42
M  V30 END BOND
M  V30 END CTAB
M  END
>  <i_epik_Tot_Q>  (1) 
-1

>  <i_epik_Tot_abs_Q>  (1) 
1

>  <i_i_glide_confnum>  (1) 
264

>  <i_i_glide_lignum>  (1) 
22

>  <i_i_glide_posenum>  (1) 
208

>  <i_i_glide_rotatable_bonds>  (1) 
9

>  <i_lp_mmshare_version>  (1) 
72125

>  <i_m_source_file_index>  (1) 
14

>  <i_f3d_flags>  (1) 
0

>  <num_sample>  (1) 
100

>  <b_lp_Chiralities_Consistent>  (1) 
1

>  <r_epik_Charging_Adjusted_Penalty>  (1) 
0.0089730796108065652

>  <r_epik_Ionization_Penalty>  (1) 
0.0044867090219468872

>  <r_epik_Ionization_Penalty_Charging>  (1) 
0.0044865398054032973

>  <r_epik_Ionization_Penalty_Neutral>  (1) 
1.6921654359002709e-07

>  <r_epik_State_Penalty>  (1) 
0.0044865398054032678

>  <r_glide_ring_energy>  (1) 
0

>  <r_i_docking_score>  (1) 
-0.011288741142051266

>  <r_i_glide_ecoul>  (1) 
-4.3737649586436129

>  <r_i_glide_eff_state_penalty>  (1) 
0.0044865398054032678

>  <r_i_glide_einternal>  (1) 
14.56163948986601

>  <r_i_glide_emodel>  (1) 
-17.782302662024868

>  <r_i_glide_emodel_strain>  (1) 
1.3368135017377654

>  <r_i_glide_energy>  (1) 
-26.387552935159196

>  <r_i_glide_erotb>  (1) 
0.1967937001840224

>  <r_i_glide_esite>  (1) 
0

>  <r_i_glide_evdw>  (1) 
-22.013787976515584

>  <r_i_glide_gscore>  (1) 
-0.015775280947454534

>  <r_i_glide_gscore_strain>  (1) 
0

>  <r_i_glide_hbond>  (1) 
-0.32000000000000001

>  <r_i_glide_ligand_efficiency>  (1) 
-0.00026877955100122064

>  <r_i_glide_ligand_efficiency_ln>  (1) 
-0.0023827624236367907

>  <r_i_glide_ligand_efficiency_sa>  (1) 
-0.00093428488088085954

>  <r_i_glide_lipo>  (1) 
-0.76465527895141527

>  <r_i_glide_metal>  (1) 
-0

>  <r_i_glide_rewards>  (1) 
2.628840440442259

>  <r_lp_Energy>  (1) 
45.328569999999999

>  <r_lp_tautomer_probability>  (1) 
0.99985000999950013

>  <s_epik_Chemistry_Notes>  (1) 
This compound has an ester and may undergo hydrolysis at high or low pH. This is carbonic acid which has a microscopic pka value of about 3.8 however its equilibrium with CO2 as a lewis acid yields a pKa of about 6.35.

>  <s_epik_cmdline>  (1) 
J2VwaWtfcHl0aG9uJywgJy1waHQnLCAnMS4wJywgJy1waCcsICc3LjQnLCAnLXRuJywgJzgnLCAnLW1hJywgJzUwMCcsICctaW1hZScsICc8aW5maWxlLm1hZT4nLCAnLW9tYWUnLCAnPG91dGZpbGUubWFlPic=

>  <s_epik_input>  (1) 
W09IXUMoPU8pT0MoRikoRilDMT1bQ0hdW0NIMl1bQ0gyXUMoPUM9W0NIXTEpW0NAQEhdKFtDSDJdW0NIMl0yKVtDSDJdW0NIMl1bQ0BASF0oQzIzNClbQ0BIXTNbQ0BdKFtPSF0pKFtDSDJdW09IXSlbQ0BIXShbQ0gyXUM0PU8pW0NAXTU2W0NAQEhdKFtDSDJdNilbQ0gyXVtDSDJdW0NIMl1bQ0BASF0oW0NIXT1PKVtDSDJdW0NIMl1bQ0gyXTU=

>  <s_glide_docking_method>  (1) 
confgen

>  <s_i_glide_gridfile>  (1) 
gpcr_drd2_6luq_protein_autoprepared_prepared

>  <s_lp_Force_Field>  (1) 
S-OPLS

>  <s_lp_Variant>  (1) 
DiffSBDD_13_num_sample_100-1

>  <s_m_source_file>  (1) 
generated__ligand_DiffSBDD_2026-05-06_prepared.sdf

>  <GenAI_Model>  (1) 
DiffSBDD

>  <Protein>  (1) 
generic_title2

$$$$
DiffSBDD_46_num_sample_100
     RDKit          3D

  0  0  0  0  0  0  0  0  0  0999 V3000
M  V30 BEGIN CTAB
M  V30 COUNTS 40 39 0 0 1
M  V30 BEGIN ATOM
M  V30 1 C 11.909406 8.512553 -3.306037 0
M  V30 2 C 11.109045 6.824843 -6.680344 0
M  V30 3 N 12.234839 8.569295 -2.197783 0
M  V30 4 C 8.381057 4.569288 -11.079156 0
M  V30 5 C 9.927320 7.431556 -8.880224 0
M  V30 6 C 7.157133 2.098880 -13.208534 0 CFG=2
M  V30 7 C 7.775545 4.488171 -12.483342 0
M  V30 8 C 10.012363 7.660417 -7.360888 0
M  V30 9 C 11.171969 7.000944 -5.155639 0
M  V30 10 O 6.634837 -0.230699 -13.487225 0
M  V30 11 C 11.497432 8.436703 -4.715766 0
M  V30 12 O 7.434840 2.178366 -14.590236 0
M  V30 13 C 9.336079 6.062043 -9.256366 0
M  V30 14 C 6.102351 0.994529 -13.029882 0
M  V30 15 O 8.168058 5.213831 -13.396444 0
M  V30 16 C 6.656861 3.465960 -12.701706 0
M  V30 17 C 9.034843 5.924113 -10.756987 0
M  V30 18 H 10.945762 5.769301 -6.893155 0
M  V30 19 H 12.077446 7.072001 -7.115630 0
M  V30 20 H 7.583566 4.377365 -10.360895 0
M  V30 21 H 9.110041 3.767353 -10.962977 0
M  V30 22 H 10.909765 7.554916 -9.336886 0
M  V30 23 H 9.299164 8.214618 -9.306287 0
M  V30 24 H 8.074307 1.810891 -12.691664 0
M  V30 25 H 10.206282 8.718367 -7.184104 0
M  V30 26 H 9.042238 7.452622 -6.905661 0
M  V30 27 H 10.234839 6.676469 -4.702635 0
M  V30 28 H 11.933008 6.325110 -4.765230 0
M  V30 29 H 5.957287 -0.902231 -13.462670 0
M  V30 30 H 12.305665 8.856808 -5.312426 0
M  V30 31 H 10.634880 9.087809 -4.855615 0
M  V30 32 H 7.547512 1.286230 -14.890304 0
M  V30 33 H 8.408665 5.915082 -8.699908 0
M  V30 34 H 10.008902 5.263163 -8.945747 0
M  V30 35 H 5.187946 1.225440 -13.577686 0
M  V30 36 H 5.834840 0.886183 -11.978150 0
M  V30 37 H 5.918960 3.879355 -13.389727 0
M  V30 38 H 6.145662 3.334774 -11.748089 0
M  V30 39 H 9.951109 6.041992 -11.336404 0
M  V30 40 H 8.369121 6.733235 -11.063644 0
M  V30 END ATOM
M  V30 BEGIN BOND
M  V30 1 3 3 1
M  V30 2 1 7 4
M  V30 3 1 8 2
M  V30 4 1 8 5
M  V30 5 1 9 2
M  V30 6 1 11 1
M  V30 7 1 11 9
M  V30 8 1 12 6
M  V30 9 1 13 5
M  V30 10 1 14 6
M  V30 11 1 14 10
M  V30 12 2 15 7
M  V30 13 1 16 6
M  V30 14 1 16 7
M  V30 15 1 17 4
M  V30 16 1 17 13
M  V30 17 1 18 2
M  V30 18 1 19 2
M  V30 19 1 20 4
M  V30 20 1 21 4
M  V30 21 1 22 5
M  V30 22 1 23 5
M  V30 23 1 6 24 CFG=1
M  V30 24 1 25 8
M  V30 25 1 26 8
M  V30 26 1 27 9
M  V30 27 1 28 9
M  V30 28 1 29 10
M  V30 29 1 30 11
M  V30 30 1 31 11
M  V30 31 1 32 12
M  V30 32 1 33 13
M  V30 33 1 34 13
M  V30 34 1 35 14
M  V30 35 1 36 14
M  V30 36 1 37 16
M  V30 37 1 38 16
M  V30 38 1 39 17
M  V30 39 1 40 17
M  V30 END BOND
M  V30 END CTAB
M  END
>  <i_epik_Tot_Q>  (1) 
0

>  <i_epik_Tot_abs_Q>  (1) 
0

>  <i_i_glide_confnum>  (1) 
269

>  <i_i_glide_lignum>  (1) 
86

>  <i_i_glide_posenum>  (1) 
230

>  <i_i_glide_rotatable_bonds>  (1) 
13

>  <i_lp_mmshare_version>  (1) 
72125

>  <i_m_source_file_index>  (1) 
47

>  <i_f3d_flags>  (1) 
0

>  <num_sample>  (1) 
100

>  <b_lp_Chiralities_Consistent>  (1) 
1

>  <r_epik_Charging_Adjusted_Penalty>  (1) 
0

>  <r_epik_Ionization_Penalty>  (1) 
2.6084577227152967e-07

>  <r_epik_Ionization_Penalty_Charging>  (1) 
0

>  <r_epik_Ionization_Penalty_Neutral>  (1) 
2.6084577227152967e-07

>  <r_epik_State_Penalty>  (1) 
-0

>  <r_glide_ring_energy>  (1) 
0

>  <r_i_docking_score>  (1) 
0.04581198512633039

>  <r_i_glide_ecoul>  (1) 
-1.1649198137278813

>  <r_i_glide_eff_state_penalty>  (1) 
-0

>  <r_i_glide_einternal>  (1) 
12.003960909162306

>  <r_i_glide_emodel>  (1) 
-23.285942778982914

>  <r_i_glide_emodel_strain>  (1) 
0.18620156603371107

>  <r_i_glide_energy>  (1) 
-29.568179072983355

>  <r_i_glide_erotb>  (1) 
5.9484059463234038

>  <r_i_glide_esite>  (1) 
0

>  <r_i_glide_evdw>  (1) 
-28.403259259255474

>  <r_i_glide_gscore>  (1) 
0.04581198512633039

>  <r_i_glide_gscore_strain>  (1) 
0

>  <r_i_glide_hbond>  (1) 
-0.16

>  <r_i_glide_ligand_efficiency>  (1) 
0.0026948226544900229

>  <r_i_glide_ligand_efficiency_ln>  (1) 
0.011951326736709423

>  <r_i_glide_ligand_efficiency_sa>  (1) 
0.0069291478815789549

>  <r_i_glide_lipo>  (1) 
-1.4520667053082315

>  <r_i_glide_metal>  (1) 
-0

>  <r_i_glide_rewards>  (1) 
-2.6956263208668862

>  <r_lp_Energy>  (1) 
-1.415713

>  <r_lp_tautomer_probability>  (1) 
1

>  <s_epik_cmdline>  (1) 
J2VwaWtfcHl0aG9uJywgJy1waHQnLCAnMS4wJywgJy1waCcsICc3LjQnLCAnLXRuJywgJzgnLCAnLW1hJywgJzUwMCcsICctaW1hZScsICc8aW5maWxlLm1hZT4nLCAnLW9tYWUnLCAnPG91dGZpbGUubWFlPic=

>  <s_epik_input>  (1) 
TiNDW0NIMl1bQ0gyXVtDSDJdW0NIMl1bQ0gyXVtDSDJdW0NIMl1bQ0gyXUMoPU8pW0NIMl1bQ0BIXShbT0hdKVtDSDJdW09IXQ==

>  <s_glide_docking_method>  (1) 
confgen

>  <s_i_glide_gridfile>  (1) 
gpcr_drd2_6luq_protein_autoprepared_prepared

>  <s_lp_Force_Field>  (1) 
S-OPLS

>  <s_lp_Variant>  (1) 
DiffSBDD_46_num_sample_100-1

>  <s_m_source_file>  (1) 
generated__ligand_DiffSBDD_2026-05-06_prepared.sdf

>  <GenAI_Model>  (1) 
DiffSBDD

>  <Protein>  (1) 
generic_title2

$$$$
DiffSBDD_56_num_sample_100
     RDKit          3D

  0  0  0  0  0  0  0  0  0  0999 V3000
M  V30 BEGIN CTAB
M  V30 COUNTS 69 75 0 0 1
M  V30 BEGIN ATOM
M  V30 1 O 11.407207 3.287132 -18.773444 0
M  V30 2 C 7.241741 5.362342 -10.886964 0
M  V30 3 C 8.652962 7.979768 -12.419076 0
M  V30 4 C 8.638408 5.622238 -13.494906 0
M  V30 5 C 7.929881 -0.724426 -16.842521 0 CFG=2
M  V30 6 C 7.243803 3.502580 -13.454891 0
M  V30 7 F 6.891502 5.210983 -14.946503 0
M  V30 8 C 11.062901 0.938484 -18.247062 0
M  V30 9 C 5.938478 1.373993 -12.786801 0 CFG=1
M  V30 10 C 10.575274 2.271150 -18.325633 0
M  V30 11 C 6.163983 4.660806 -10.722705 0
M  V30 12 C 7.024723 0.391333 -14.819056 0 CFG=1
M  V30 13 C 4.698544 0.754603 -13.434796 0
M  V30 14 N 6.927255 0.291315 -16.301426 0
M  V30 15 C 9.277654 6.143176 -9.724351 0
M  V30 16 C 7.214485 5.004909 -13.670563 0 CFG=2
M  V30 17 C 8.428845 1.480564 -17.501581 0
M  V30 18 C 11.031411 4.674244 -18.639722 0
M  V30 19 C 8.742474 3.904488 -18.026786 0
M  V30 20 C 8.388305 5.973538 -10.966891 0
M  V30 21 C 12.487421 0.632704 -18.639841 0
M  V30 22 C 7.034710 1.620919 -17.048343 0
M  V30 23 C 8.199830 1.233379 -14.264269 0
M  V30 24 C 9.560372 4.899669 -18.352007 0
M  V30 25 C 8.043928 2.768827 -14.276349 0
M  V30 26 C 9.233132 2.545266 -17.954415 0
M  V30 27 C 10.062167 7.444988 -12.277652 0
M  V30 28 C 5.857582 1.113600 -14.279653 0 CFG=1
M  V30 29 O 9.434805 7.461827 -9.229041 0
M  V30 30 C 6.336078 2.802903 -12.480239 0
M  V30 31 C 8.896364 0.235951 -17.413105 0
M  V30 32 C 7.236804 -1.631355 -17.873787 0
M  V30 33 C 5.836327 3.383645 -11.318567 0
M  V30 34 C 10.210734 -0.094444 -17.788828 0
M  V30 35 C 8.894390 6.491473 -12.258234 0
M  V30 36 H 8.236241 8.299844 -13.366191 0
M  V30 37 H 8.216482 8.496620 -11.570154 0
M  V30 38 H 9.398283 4.840160 -13.473031 0
M  V30 39 H 8.892165 6.166457 -14.398454 0
M  V30 40 H 8.437119 -1.298666 -16.062475 0
M  V30 41 H 6.512168 0.660981 -12.201311 0
M  V30 42 H 5.557533 4.900174 -9.891678 0
M  V30 43 H 7.028512 -0.617053 -14.405588 0
M  V30 44 H 3.806921 1.379559 -13.498298 0
M  V30 45 H 4.517067 -0.303534 -13.269045 0
M  V30 46 H 10.235397 5.750697 -10.005794 0
M  V30 47 H 8.904619 5.515402 -8.910223 0
M  V30 48 H 6.402692 5.548764 -13.202599 0
M  V30 49 H 11.602363 5.092761 -17.812202 0
M  V30 50 H 11.319892 5.205089 -19.546753 0
M  V30 51 H 7.700048 4.089922 -17.810468 0
M  V30 52 H 12.752088 -0.407309 -18.440744 0
M  V30 53 H 12.604662 0.831932 -19.704957 0
M  V30 54 H 13.171352 1.275609 -18.082105 0
M  V30 55 H 6.379653 1.621935 -17.919577 0
M  V30 56 H 6.862196 2.528197 -16.481960 0
M  V30 57 H 9.034847 1.008700 -14.880209 0
M  V30 58 H 8.489253 0.897568 -13.271797 0
M  V30 59 H 9.195951 5.913745 -18.400783 0
M  V30 60 H 8.629719 3.290799 -15.015118 0
M  V30 61 H 10.593112 7.667772 -11.368963 0
M  V30 62 H 10.748119 7.361311 -13.091172 0
M  V30 63 H 5.834951 2.033823 -14.789145 0
M  V30 64 H 8.521239 7.769340 -9.114785 0
M  V30 65 H 7.951219 -2.289852 -18.362503 0
M  V30 66 H 6.501248 -2.264339 -17.377045 0
M  V30 67 H 6.705123 -1.083257 -18.652145 0
M  V30 68 H 5.183724 2.787563 -10.693053 0
M  V30 69 H 10.568989 -1.113508 -17.708484 0
M  V30 END ATOM
M  V30 BEGIN BOND
M  V30 1 1 10 1
M  V30 2 1 10 8
M  V30 3 2 11 2
M  V30 4 1 13 9
M  V30 5 1 14 5
M  V30 6 1 14 12
M  V30 7 1 16 4
M  V30 8 1 16 6
M  V30 9 1 16 7
M  V30 10 1 18 1
M  V30 11 2 20 2
M  V30 12 1 20 15
M  V30 13 1 21 8
M  V30 14 1 22 14
M  V30 15 1 22 17
M  V30 16 1 23 12
M  V30 17 1 24 18
M  V30 18 2 24 19
M  V30 19 2 25 6
M  V30 20 1 25 23
M  V30 21 2 26 10
M  V30 22 1 26 17
M  V30 23 1 26 19
M  V30 24 1 27 3
M  V30 25 1 28 9
M  V30 26 1 28 12
M  V30 27 1 28 13
M  V30 28 1 29 15
M  V30 29 1 30 6
M  V30 30 1 30 9
M  V30 31 1 31 5
M  V30 32 2 31 17
M  V30 33 1 32 5
M  V30 34 1 33 11
M  V30 35 2 33 30
M  V30 36 2 34 8
M  V30 37 1 34 31
M  V30 38 1 35 3
M  V30 39 1 35 4
M  V30 40 1 35 20
M  V30 41 1 35 27
M  V30 42 1 36 3
M  V30 43 1 37 3
M  V30 44 1 38 4
M  V30 45 1 39 4
M  V30 46 1 5 40 CFG=1
M  V30 47 1 9 41 CFG=1
M  V30 48 1 42 11
M  V30 49 1 12 43 CFG=1
M  V30 50 1 44 13
M  V30 51 1 45 13
M  V30 52 1 46 15
M  V30 53 1 47 15
M  V30 54 1 16 48 CFG=1
M  V30 55 1 49 18
M  V30 56 1 50 18
M  V30 57 1 51 19
M  V30 58 1 52 21
M  V30 59 1 53 21
M  V30 60 1 54 21
M  V30 61 1 55 22
M  V30 62 1 56 22
M  V30 63 1 57 23
M  V30 64 1 58 23
M  V30 65 1 59 24
M  V30 66 1 60 25
M  V30 67 1 61 27
M  V30 68 1 62 27
M  V30 69 1 28 63 CFG=3
M  V30 70 1 64 29
M  V30 71 1 65 32
M  V30 72 1 66 32
M  V30 73 1 67 32
M  V30 74 1 68 33
M  V30 75 1 69 34
M  V30 END BOND
M  V30 END CTAB
M  END
>  <i_epik_Tot_Q>  (1) 
0

>  <i_epik_Tot_abs_Q>  (1) 
0

>  <i_i_glide_confnum>  (1) 
3

>  <i_i_glide_lignum>  (1) 
114

>  <i_i_glide_posenum>  (1) 
300

>  <i_i_glide_rotatable_bonds>  (1) 
3

>  <i_lp_mmshare_version>  (1) 
72125

>  <i_m_source_file_index>  (1) 
57

>  <i_f3d_flags>  (1) 
0

>  <num_sample>  (1) 
100

>  <b_lp_Chiralities_Consistent>  (1) 
1

>  <r_epik_Charging_Adjusted_Penalty>  (1) 
1.2909634030870925

>  <r_epik_Ionization_Penalty>  (1) 
1.2909642397240775

>  <r_epik_Ionization_Penalty_Charging>  (1) 
0

>  <r_epik_Ionization_Penalty_Neutral>  (1) 
1.2909642397240775

>  <r_epik_State_Penalty>  (1) 
1.2909634030870925

>  <r_glide_ring_energy>  (1) 
1.3013915201378028

>  <r_i_docking_score>  (1) 
0.12676201649523144

>  <r_i_glide_ecoul>  (1) 
-8.5256810193785952

>  <r_i_glide_eff_state_penalty>  (1) 
1.2909634030870925

>  <r_i_glide_einternal>  (1) 
4.0730046573025014

>  <r_i_glide_emodel>  (1) 
7.4696358381782506

>  <r_i_glide_emodel_strain>  (1) 
15.398387570691483

>  <r_i_glide_energy>  (1) 
-8.8677683802924054

>  <r_i_glide_erotb>  (1) 
0.18175884728826419

>  <r_i_glide_esite>  (1) 
0

>  <r_i_glide_evdw>  (1) 
-0.34208736091381003

>  <r_i_glide_gscore>  (1) 
-1.164201386591861

>  <r_i_glide_gscore_strain>  (1) 
2.8495968926728708

>  <r_i_glide_hbond>  (1) 
-0.16

>  <r_i_glide_ligand_efficiency>  (1) 
0.0036217718998637558

>  <r_i_glide_ligand_efficiency_ln>  (1) 
0.027827075952081132

>  <r_i_glide_ligand_efficiency_sa>  (1) 
0.011847056044832055

>  <r_i_glide_lipo>  (1) 
-1.7662808251100841

>  <r_i_glide_metal>  (1) 
-0

>  <r_i_glide_rewards>  (1) 
-0.97331978049043189

>  <r_lp_Energy>  (1) 
69.698508000000004

>  <s_epik_cmdline>  (1) 
J2VwaWtfcHl0aG9uJywgJy1waHQnLCAnMS4wJywgJy1waCcsICc3LjQnLCAnLXRuJywgJzgnLCAnLW1hJywgJzUwMCcsICctaW1hZScsICc8aW5maWxlLm1hZT4nLCAnLW9tYWUnLCAnPG91dGZpbGUubWFlPic=

>  <s_epik_input>  (1) 
TzFbQ0gyXVtDSF09W0NIXWMoYzEyKWMzYyhbY0hdYzJbQ0gzXSlbQ0BIXShbQ0gzXSlOKFtDSDJdMylbQ0BASF0oW0NIMl1bQ0hdNClbQ0BASF0oW0NIMl01KVtDQEhdNUMoXEM9NFtDQEhdKEYpW0NIMl1DNjdbQ0gyXVtDSDJdNyk9W0NIXVxbQ0hdPUM9QzZbQ0gyXVtPSF0=

>  <s_glide_docking_method>  (1) 
confgen

>  <s_i_glide_gridfile>  (1) 
gpcr_drd2_6luq_protein_autoprepared_prepared

>  <s_lp_Force_Field>  (1) 
S-OPLS

>  <s_lp_Variant>  (1) 
DiffSBDD_56_num_sample_100-3

>  <s_m_source_file>  (1) 
generated__ligand_DiffSBDD_2026-05-06_prepared.sdf

>  <GenAI_Model>  (1) 
DiffSBDD

>  <Protein>  (1) 
generic_title2

$$$$
DiffSBDD_46_num_sample_100
     RDKit          3D

  0  0  0  0  0  0  0  0  0  0999 V3000
M  V30 BEGIN CTAB
M  V30 COUNTS 40 39 0 0 1
M  V30 BEGIN ATOM
M  V30 1 C 6.692224 5.972787 -14.627002 0
M  V30 2 C 7.159511 5.336604 -11.676864 0
M  V30 3 N 6.235259 6.969764 -14.995448 0
M  V30 4 C 11.531379 6.727654 -7.110776 0
M  V30 5 C 9.054186 6.097447 -10.098436 0
M  V30 6 C 12.234742 7.721836 -3.685241 0 CFG=2
M  V30 7 C 10.839391 7.310077 -5.878585 0
M  V30 8 C 7.821113 5.203468 -10.296136 0
M  V30 9 C 8.029442 4.808398 -12.830873 0
M  V30 10 O 12.549677 9.713124 -5.077851 0
M  V30 11 C 7.271322 4.702695 -14.161975 0
M  V30 12 O 12.055211 7.400099 -2.320395 0
M  V30 13 C 9.593452 6.036878 -8.660306 0
M  V30 14 C 12.056782 9.250726 -3.835246 0
M  V30 15 O 9.961802 8.166167 -5.979970 0
M  V30 16 C 11.293010 6.790006 -4.506404 0
M  V30 17 C 10.796337 6.969305 -8.444795 0
M  V30 18 H 6.222373 4.779268 -11.658824 0
M  V30 19 H 6.887457 6.378733 -11.851924 0
M  V30 20 H 12.512202 7.193867 -7.174792 0
M  V30 21 H 11.700879 5.661774 -6.959496 0
M  V30 22 H 8.809432 7.127604 -10.353681 0
M  V30 23 H 9.834841 5.792850 -10.793717 0
M  V30 24 H 13.272779 7.476730 -3.891664 0
M  V30 25 H 8.102416 4.169300 -10.126085 0
M  V30 26 H 7.078940 5.434637 -9.531569 0
M  V30 27 H 8.898501 5.453629 -12.962804 0
M  V30 28 H 8.418289 3.822641 -12.572587 0
M  V30 29 H 12.006114 10.429636 -5.371313 0
M  V30 30 H 7.937410 4.337468 -14.943641 0
M  V30 31 H 6.456672 3.983450 -14.075138 0
M  V30 32 H 12.635011 7.941334 -1.805959 0
M  V30 33 H 9.879419 5.009228 -8.432450 0
M  V30 34 H 8.798662 6.299955 -7.959790 0
M  V30 35 H 12.612837 9.769293 -3.053661 0
M  V30 36 H 11.016954 9.545354 -3.723530 0
M  V30 37 H 11.777161 5.822576 -4.639246 0
M  V30 38 H 10.389006 6.569298 -3.938807 0
M  V30 39 H 10.475314 8.008948 -8.527238 0
M  V30 40 H 11.507345 6.827605 -9.256427 0
M  V30 END ATOM
M  V30 BEGIN BOND
M  V30 1 3 3 1
M  V30 2 1 7 4
M  V30 3 1 8 2
M  V30 4 1 8 5
M  V30 5 1 9 2
M  V30 6 1 11 1
M  V30 7 1 11 9
M  V30 8 1 12 6
M  V30 9 1 13 5
M  V30 10 1 14 6
M  V30 11 1 14 10
M  V30 12 2 15 7
M  V30 13 1 16 6
M  V30 14 1 16 7
M  V30 15 1 17 4
M  V30 16 1 17 13
M  V30 17 1 18 2
M  V30 18 1 19 2
M  V30 19 1 20 4
M  V30 20 1 21 4
M  V30 21 1 22 5
M  V30 22 1 23 5
M  V30 23 1 6 24 CFG=3
M  V30 24 1 25 8
M  V30 25 1 26 8
M  V30 26 1 27 9
M  V30 27 1 28 9
M  V30 28 1 29 10
M  V30 29 1 30 11
M  V30 30 1 31 11
M  V30 31 1 32 12
M  V30 32 1 33 13
M  V30 33 1 34 13
M  V30 34 1 35 14
M  V30 35 1 36 14
M  V30 36 1 37 16
M  V30 37 1 38 16
M  V30 38 1 39 17
M  V30 39 1 40 17
M  V30 END BOND
M  V30 END CTAB
M  END
>  <i_epik_Tot_Q>  (1) 
0

>  <i_epik_Tot_abs_Q>  (1) 
0

>  <i_i_glide_confnum>  (1) 
111

>  <i_i_glide_lignum>  (1) 
86

>  <i_i_glide_posenum>  (1) 
397

>  <i_i_glide_rotatable_bonds>  (1) 
13

>  <i_lp_mmshare_version>  (1) 
72125

>  <i_m_source_file_index>  (1) 
47

>  <i_f3d_flags>  (1) 
0

>  <num_sample>  (1) 
100

>  <b_lp_Chiralities_Consistent>  (1) 
1

>  <r_epik_Charging_Adjusted_Penalty>  (1) 
0

>  <r_epik_Ionization_Penalty>  (1) 
2.6084577227152967e-07

>  <r_epik_Ionization_Penalty_Charging>  (1) 
0

>  <r_epik_Ionization_Penalty_Neutral>  (1) 
2.6084577227152967e-07

>  <r_epik_State_Penalty>  (1) 
-0

>  <r_glide_ring_energy>  (1) 
0

>  <r_i_docking_score>  (1) 
0.46024448879676877

>  <r_i_glide_ecoul>  (1) 
-0.66932009938836323

>  <r_i_glide_eff_state_penalty>  (1) 
-0

>  <r_i_glide_einternal>  (1) 
4.7114366338393214

>  <r_i_glide_emodel>  (1) 
-22.274743305908039

>  <r_i_glide_emodel_strain>  (1) 
1.7191459499641595

>  <r_i_glide_energy>  (1) 
-27.29451229268399

>  <r_i_glide_erotb>  (1) 
5.9484059463234038

>  <r_i_glide_esite>  (1) 
0

>  <r_i_glide_evdw>  (1) 
-26.625192193295629

>  <r_i_glide_gscore>  (1) 
0.46024448879676877

>  <r_i_glide_gscore_strain>  (1) 
0

>  <r_i_glide_hbond>  (1) 
0

>  <r_i_glide_ligand_efficiency>  (1) 
0.02707320522333934

>  <r_i_glide_ligand_efficiency_ln>  (1) 
0.12006753798622356

>  <r_i_glide_ligand_efficiency_sa>  (1) 
0.069612834190884834

>  <r_i_glide_lipo>  (1) 
-1.3389957134847088

>  <r_i_glide_metal>  (1) 
-0

>  <r_i_glide_rewards>  (1) 
-2.7175081194688908

>  <r_lp_Energy>  (1) 
-1.415713

>  <r_lp_tautomer_probability>  (1) 
1

>  <s_epik_cmdline>  (1) 
J2VwaWtfcHl0aG9uJywgJy1waHQnLCAnMS4wJywgJy1waCcsICc3LjQnLCAnLXRuJywgJzgnLCAnLW1hJywgJzUwMCcsICctaW1hZScsICc8aW5maWxlLm1hZT4nLCAnLW9tYWUnLCAnPG91dGZpbGUubWFlPic=

>  <s_epik_input>  (1) 
TiNDW0NIMl1bQ0gyXVtDSDJdW0NIMl1bQ0gyXVtDSDJdW0NIMl1bQ0gyXUMoPU8pW0NIMl1bQ0BIXShbT0hdKVtDSDJdW09IXQ==

>  <s_glide_docking_method>  (1) 
confgen

>  <s_i_glide_gridfile>  (1) 
gpcr_drd2_6luq_protein_autoprepared_prepared

>  <s_lp_Force_Field>  (1) 
S-OPLS

>  <s_lp_Variant>  (1) 
DiffSBDD_46_num_sample_100-1

>  <s_m_source_file>  (1) 
generated__ligand_DiffSBDD_2026-05-06_prepared.sdf

>  <GenAI_Model>  (1) 
DiffSBDD

>  <Protein>  (1) 
generic_title2

$$$$
DiffSBDD_46_num_sample_100
     RDKit          3D

  0  0  0  0  0  0  0  0  0  0999 V3000
M  V30 BEGIN CTAB
M  V30 COUNTS 40 39 0 0 1
M  V30 BEGIN ATOM
M  V30 1 C 4.678294 6.159275 -19.679564 0
M  V30 2 C 5.245762 6.371439 -16.645208 0
M  V30 3 N 4.741821 5.179520 -20.291704 0
M  V30 4 C 6.575701 4.862112 -10.512288 0
M  V30 5 C 5.742261 5.506024 -14.302051 0
M  V30 6 C 9.923230 5.975191 -8.674603 0 CFG=2
M  V30 7 C 8.079748 4.969334 -10.239332 0
M  V30 8 C 5.980845 6.627815 -15.318871 0
M  V30 9 C 5.523752 7.460398 -17.687544 0
M  V30 10 O 9.434835 8.145667 -9.683395 0
M  V30 11 C 4.594510 7.408426 -18.906921 0
M  V30 12 O 10.037888 6.549305 -7.389690 0
M  V30 13 C 6.365152 5.776324 -12.924231 0
M  V30 14 C 10.331997 7.055842 -9.696993 0
M  V30 15 O 8.911762 4.700028 -11.105731 0
M  V30 16 C 8.500782 5.405935 -8.829102 0
M  V30 17 C 6.170283 4.583535 -11.971874 0
M  V30 18 H 5.545543 5.405572 -17.054172 0
M  V30 19 H 4.173137 6.311911 -16.456926 0
M  V30 20 H 6.200106 4.049377 -9.891591 0
M  V30 21 H 6.086401 5.769328 -10.160200 0
M  V30 22 H 6.135674 4.570667 -14.700518 0
M  V30 23 H 4.669017 5.368857 -14.176540 0
M  V30 24 H 10.634839 5.153494 -8.692064 0
M  V30 25 H 5.645866 7.577245 -14.898228 0
M  V30 26 H 7.050953 6.728396 -15.500198 0
M  V30 27 H 5.434944 8.442688 -17.222277 0
M  V30 28 H 6.557299 7.368966 -18.021919 0
M  V30 29 H 8.506713 7.846800 -9.709954 0
M  V30 30 H 3.559001 7.545672 -18.596747 0
M  V30 31 H 4.828836 8.225484 -19.588884 0
M  V30 32 H 9.490389 7.322349 -7.380453 0
M  V30 33 H 5.907011 6.666572 -12.491019 0
M  V30 34 H 7.427990 5.997072 -13.033957 0
M  V30 35 H 10.380583 6.663302 -10.711197 0
M  V30 36 H 11.331979 7.427215 -9.470923 0
M  V30 37 H 8.364690 4.563191 -8.152894 0
M  V30 38 H 7.812156 6.169306 -8.491986 0
M  V30 39 H 6.709707 3.714685 -12.351400 0
M  V30 40 H 5.116857 4.300103 -11.974578 0
M  V30 END ATOM
M  V30 BEGIN BOND
M  V30 1 3 3 1
M  V30 2 1 7 4
M  V30 3 1 8 2
M  V30 4 1 8 5
M  V30 5 1 9 2
M  V30 6 1 11 1
M  V30 7 1 11 9
M  V30 8 1 12 6
M  V30 9 1 13 5
M  V30 10 1 14 6
M  V30 11 1 14 10
M  V30 12 2 15 7
M  V30 13 1 16 6
M  V30 14 1 16 7
M  V30 15 1 17 4
M  V30 16 1 17 13
M  V30 17 1 18 2
M  V30 18 1 19 2
M  V30 19 1 20 4
M  V30 20 1 21 4
M  V30 21 1 22 5
M  V30 22 1 23 5
M  V30 23 1 6 24 CFG=1
M  V30 24 1 25 8
M  V30 25 1 26 8
M  V30 26 1 27 9
M  V30 27 1 28 9
M  V30 28 1 29 10
M  V30 29 1 30 11
M  V30 30 1 31 11
M  V30 31 1 32 12
M  V30 32 1 33 13
M  V30 33 1 34 13
M  V30 34 1 35 14
M  V30 35 1 36 14
M  V30 36 1 37 16
M  V30 37 1 38 16
M  V30 38 1 39 17
M  V30 39 1 40 17
M  V30 END BOND
M  V30 END CTAB
M  END
>  <i_epik_Tot_Q>  (1) 
0

>  <i_epik_Tot_abs_Q>  (1) 
0

>  <i_i_glide_confnum>  (1) 
5

>  <i_i_glide_lignum>  (1) 
86

>  <i_i_glide_posenum>  (1) 
275

>  <i_i_glide_rotatable_bonds>  (1) 
13

>  <i_lp_mmshare_version>  (1) 
72125

>  <i_m_source_file_index>  (1) 
47

>  <i_f3d_flags>  (1) 
0

>  <num_sample>  (1) 
100

>  <b_lp_Chiralities_Consistent>  (1) 
1

>  <r_epik_Charging_Adjusted_Penalty>  (1) 
0

>  <r_epik_Ionization_Penalty>  (1) 
2.6084577227152967e-07

>  <r_epik_Ionization_Penalty_Charging>  (1) 
0

>  <r_epik_Ionization_Penalty_Neutral>  (1) 
2.6084577227152967e-07

>  <r_epik_State_Penalty>  (1) 
-0

>  <r_glide_ring_energy>  (1) 
0

>  <r_i_docking_score>  (1) 
0.56045968413889202

>  <r_i_glide_ecoul>  (1) 
-7.6551784021954612

>  <r_i_glide_eff_state_penalty>  (1) 
-0

>  <r_i_glide_einternal>  (1) 
8.4909401362625072

>  <r_i_glide_emodel>  (1) 
-22.839933373793379

>  <r_i_glide_emodel_strain>  (1) 
0.28039509158171416

>  <r_i_glide_energy>  (1) 
-28.516450010586698

>  <r_i_glide_erotb>  (1) 
5.9484059463234038

>  <r_i_glide_esite>  (1) 
-0.063298583127375796

>  <r_i_glide_evdw>  (1) 
-20.861271608391238

>  <r_i_glide_gscore>  (1) 
0.56045968413889202

>  <r_i_glide_gscore_strain>  (1) 
0

>  <r_i_glide_hbond>  (1) 
-0.16

>  <r_i_glide_ligand_efficiency>  (1) 
0.032968216714052472

>  <r_i_glide_ligand_efficiency_ln>  (1) 
0.14621145076830677

>  <r_i_glide_ligand_efficiency_sa>  (1) 
0.084770568713674277

>  <r_i_glide_lipo>  (1) 
-0.9766329030788341

>  <r_i_glide_metal>  (1) 
-0

>  <r_i_glide_rewards>  (1) 
-1.9966744352294197

>  <r_lp_Energy>  (1) 
-1.415713

>  <r_lp_tautomer_probability>  (1) 
1

>  <s_epik_cmdline>  (1) 
J2VwaWtfcHl0aG9uJywgJy1waHQnLCAnMS4wJywgJy1waCcsICc3LjQnLCAnLXRuJywgJzgnLCAnLW1hJywgJzUwMCcsICctaW1hZScsICc8aW5maWxlLm1hZT4nLCAnLW9tYWUnLCAnPG91dGZpbGUubWFlPic=

>  <s_epik_input>  (1) 
TiNDW0NIMl1bQ0gyXVtDSDJdW0NIMl1bQ0gyXVtDSDJdW0NIMl1bQ0gyXUMoPU8pW0NIMl1bQ0BIXShbT0hdKVtDSDJdW09IXQ==

>  <s_glide_docking_method>  (1) 
confgen

>  <s_i_glide_gridfile>  (1) 
gpcr_drd2_6luq_protein_autoprepared_prepared

>  <s_lp_Force_Field>  (1) 
S-OPLS

>  <s_lp_Variant>  (1) 
DiffSBDD_46_num_sample_100-1

>  <s_m_source_file>  (1) 
generated__ligand_DiffSBDD_2026-05-06_prepared.sdf

>  <GenAI_Model>  (1) 
DiffSBDD

>  <Protein>  (1) 
generic_title2

$$$$
DiffSBDD_13_num_sample_100
     RDKit          3D

  0  0  0  0  0  0  0  0  0  0999 V3000
M  V30 BEGIN CTAB
M  V30 COUNTS 83 88 0 0 1
M  V30 BEGIN ATOM
M  V30 1 C 9.434833 6.662315 -9.811710 0
M  V30 2 C 9.045820 7.801402 -12.153441 0
M  V30 3 C 13.963847 3.633743 -22.676904 0
M  V30 4 F 8.848872 6.811578 -7.523142 0
M  V30 5 O 11.034826 7.632389 -5.997934 0 CHG=-1
M  V30 6 C 10.659908 2.806374 -19.068108 0 CFG=2
M  V30 7 C 9.007110 5.350199 -10.295100 0
M  V30 8 F 10.634835 5.708528 -8.030389 0
M  V30 9 C 8.445532 5.128026 -11.447275 0
M  V30 10 C 8.186696 3.677111 -19.347448 0
M  V30 11 C 7.117308 5.593071 -16.191040 0
M  V30 12 C 9.518894 4.446942 -16.392069 0 CFG=2
M  V30 13 C 8.203276 4.816782 -16.998759 0 CFG=2
M  V30 14 O 11.229024 5.955861 -19.026183 0
M  V30 15 C 13.760842 2.329828 -21.887720 0 CFG=1
M  V30 16 C 9.914238 6.806308 -8.355245 0
M  V30 17 C 11.193627 8.323097 -7.005019 0
M  V30 18 C 9.434850 7.761400 -10.643220 0
M  V30 19 O 7.034838 2.776771 -17.439560 0
M  V30 20 C 9.923364 5.438057 -18.894358 0 CFG=1
M  V30 21 O 10.664486 7.936189 -8.193464 0
M  V30 22 C 10.206473 1.416962 -21.280434 0
M  V30 23 C 6.525709 5.039720 -14.842980 0
M  V30 24 C 11.144996 2.067876 -22.319427 0
M  V30 25 C 9.606931 4.713914 -14.938573 0
M  V30 26 C 9.145387 6.536749 -19.668648 0
M  V30 27 O 11.834894 9.369294 -6.940117 0
M  V30 28 C 7.439684 4.583713 -13.660305 0 CFG=1
M  V30 29 C 10.767709 1.516834 -19.878772 0 CFG=2
M  V30 30 C 13.875296 2.536248 -20.352347 0
M  V30 31 O 9.492221 6.562898 -21.041290 0
M  V30 32 C 9.709559 3.996760 -19.508605 0 CFG=1
M  V30 33 C 12.568548 1.458400 -22.382180 0
M  V30 34 C 7.842436 7.039122 -12.809253 0
M  V30 35 C 8.634822 3.795716 -14.168981 0
M  V30 36 O 13.507216 3.763588 -23.811320 0
M  V30 37 C 7.926768 5.555466 -12.562995 0
M  V30 38 C 9.500900 5.525198 -17.429124 0 CFG=2
M  V30 39 C 7.728420 3.684590 -17.878590 0
M  V30 40 C 13.008588 3.651063 -19.711838 0
M  V30 41 C 12.054810 3.208091 -18.574805 0
M  V30 42 C 10.018314 1.488580 -18.593949 0
M  V30 43 H 8.880381 8.858500 -12.361936 0
M  V30 44 H 9.957314 7.544079 -12.691639 0
M  V30 45 H 14.532021 4.410579 -22.164777 0
M  V30 46 H 9.191117 4.510051 -9.643290 0
M  V30 47 H 7.931362 2.720639 -19.797908 0
M  V30 48 H 7.579617 4.398487 -19.890209 0
M  V30 49 H 6.282381 5.785520 -16.865455 0
M  V30 50 H 7.510586 6.569311 -15.960658 0
M  V30 51 H 9.962940 3.494795 -16.667438 0
M  V30 52 H 11.300814 6.289539 -19.911409 0
M  V30 53 H 14.640996 1.739777 -22.147323 0
M  V30 54 H 9.764721 8.704414 -10.238099 0
M  V30 55 H 9.219780 1.873987 -21.329422 0
M  V30 56 H 10.066174 0.361296 -21.518017 0
M  V30 57 H 5.801323 5.759477 -14.460448 0
M  V30 58 H 5.928652 4.169277 -15.091683 0
M  V30 59 H 10.680336 1.949071 -23.299587 0
M  V30 60 H 11.196920 3.144210 -22.165790 0
M  V30 61 H 10.634835 4.569343 -14.691663 0
M  V30 62 H 9.426278 5.768829 -14.745138 0
M  V30 63 H 8.066011 6.426391 -19.572469 0
M  V30 64 H 9.372997 7.516517 -19.251181 0
M  V30 65 H 6.827952 3.869974 -13.104695 0
M  V30 66 H 11.677367 0.931201 -19.787475 0
M  V30 67 H 13.742626 1.585407 -19.840444 0
M  V30 68 H 14.916369 2.785515 -20.142589 0
M  V30 69 H 9.179547 5.770986 -21.452901 0
M  V30 70 H 9.887537 4.096583 -20.576126 0
M  V30 71 H 12.589271 0.492463 -21.878007 0
M  V30 72 H 12.764926 1.209213 -23.425668 0
M  V30 73 H 6.894284 7.403695 -12.410625 0
M  V30 74 H 7.834855 7.253622 -13.874513 0
M  V30 75 H 8.285035 2.962905 -14.784098 0
M  V30 76 H 9.143716 3.341021 -13.320714 0
M  V30 77 H 9.834799 6.452982 -16.978326 0
M  V30 78 H 13.690489 4.394141 -19.295678 0
M  V30 79 H 12.446446 4.189553 -20.472485 0
M  V30 80 H 11.973720 3.975080 -17.808080 0
M  V30 81 H 12.500886 2.369404 -18.038306 0
M  V30 82 H 10.490304 0.997562 -17.744556 0
M  V30 83 H 8.959331 1.277209 -18.689499 0
M  V30 END ATOM
M  V30 BEGIN BOND
M  V30 1 1 7 1
M  V30 2 2 9 7
M  V30 3 1 13 11 CFG=1
M  V30 4 1 13 12
M  V30 5 1 15 3
M  V30 6 1 16 1
M  V30 7 1 16 4
M  V30 8 1 16 8
M  V30 9 1 17 5
M  V30 10 2 18 1
M  V30 11 1 18 2
M  V30 12 1 20 14 CFG=1
M  V30 13 1 21 16
M  V30 14 1 21 17
M  V30 15 1 23 11
M  V30 16 1 24 22
M  V30 17 1 25 12
M  V30 18 1 26 20
M  V30 19 2 27 17
M  V30 20 1 28 23
M  V30 21 1 29 6
M  V30 22 1 29 22
M  V30 23 1 30 15
M  V30 24 1 31 26
M  V30 25 1 32 6
M  V30 26 1 32 10
M  V30 27 1 32 20
M  V30 28 1 33 15
M  V30 29 1 33 24
M  V30 30 1 34 2
M  V30 31 1 35 25
M  V30 32 1 35 28
M  V30 33 2 36 3
M  V30 34 2 37 9
M  V30 35 1 37 28
M  V30 36 1 37 34
M  V30 37 1 38 12
M  V30 38 1 38 13
M  V30 39 1 38 20
M  V30 40 1 39 10
M  V30 41 1 39 13
M  V30 42 2 39 19
M  V30 43 1 40 30
M  V30 44 1 6 41 CFG=1
M  V30 45 1 41 40
M  V30 46 1 42 6
M  V30 47 1 42 29
M  V30 48 1 43 2
M  V30 49 1 44 2
M  V30 50 1 45 3
M  V30 51 1 46 7
M  V30 52 1 47 10
M  V30 53 1 48 10
M  V30 54 1 49 11
M  V30 55 1 50 11
M  V30 56 1 12 51 CFG=3
M  V30 57 1 52 14
M  V30 58 1 15 53 CFG=3
M  V30 59 1 54 18
M  V30 60 1 55 22
M  V30 61 1 56 22
M  V30 62 1 57 23
M  V30 63 1 58 23
M  V30 64 1 59 24
M  V30 65 1 60 24
M  V30 66 1 61 25
M  V30 67 1 62 25
M  V30 68 1 63 26
M  V30 69 1 64 26
M  V30 70 1 28 65 CFG=1
M  V30 71 1 29 66 CFG=1
M  V30 72 1 67 30
M  V30 73 1 68 30
M  V30 74 1 69 31
M  V30 75 1 32 70 CFG=3
M  V30 76 1 71 33
M  V30 77 1 72 33
M  V30 78 1 73 34
M  V30 79 1 74 34
M  V30 80 1 75 35
M  V30 81 1 76 35
M  V30 82 1 38 77 CFG=1
M  V30 83 1 78 40
M  V30 84 1 79 40
M  V30 85 1 80 41
M  V30 86 1 81 41
M  V30 87 1 82 42
M  V30 88 1 83 42
M  V30 END BOND
M  V30 END CTAB
M  END
>  <i_epik_Tot_Q>  (1) 
-1

>  <i_epik_Tot_abs_Q>  (1) 
1

>  <i_i_glide_confnum>  (1) 
153

>  <i_i_glide_lignum>  (1) 
22

>  <i_i_glide_posenum>  (1) 
309

>  <i_i_glide_rotatable_bonds>  (1) 
9

>  <i_lp_mmshare_version>  (1) 
72125

>  <i_m_source_file_index>  (1) 
14

>  <i_f3d_flags>  (1) 
0

>  <num_sample>  (1) 
100

>  <b_lp_Chiralities_Consistent>  (1) 
1

>  <r_epik_Charging_Adjusted_Penalty>  (1) 
0.0089730796108065652

>  <r_epik_Ionization_Penalty>  (1) 
0.0044867090219468872

>  <r_epik_Ionization_Penalty_Charging>  (1) 
0.0044865398054032973

>  <r_epik_Ionization_Penalty_Neutral>  (1) 
1.6921654359002709e-07

>  <r_epik_State_Penalty>  (1) 
0.0044865398054032678

>  <r_glide_ring_energy>  (1) 
0

>  <r_i_docking_score>  (1) 
0.67576376136392358

>  <r_i_glide_ecoul>  (1) 
0.43586219744941901

>  <r_i_glide_eff_state_penalty>  (1) 
0.0044865398054032678

>  <r_i_glide_einternal>  (1) 
14.68110946099242

>  <r_i_glide_emodel>  (1) 
-6.7044593889440538

>  <r_i_glide_emodel_strain>  (1) 
5.63079706119251

>  <r_i_glide_energy>  (1) 
-20.202737331606745

>  <r_i_glide_erotb>  (1) 
0.1967937001840224

>  <r_i_glide_esite>  (1) 
-0.10000000000000001

>  <r_i_glide_evdw>  (1) 
-20.638599529056165

>  <r_i_glide_gscore>  (1) 
0.67127722155852032

>  <r_i_glide_gscore_strain>  (1) 
0.4076992652981275

>  <r_i_glide_hbond>  (1) 
0

>  <r_i_glide_ligand_efficiency>  (1) 
0.016089613365807703

>  <r_i_glide_ligand_efficiency_ln>  (1) 
0.14263632034535528

>  <r_i_glide_ligand_efficiency_sa>  (1) 
0.055927924765468741

>  <r_i_glide_lipo>  (1) 
-0.87059181095085991

>  <r_i_glide_metal>  (1) 
-0

>  <r_i_glide_rewards>  (1) 
2.0039267138626258

>  <r_lp_Energy>  (1) 
45.328569999999999

>  <r_lp_tautomer_probability>  (1) 
0.99985000999950013

>  <s_epik_Chemistry_Notes>  (1) 
This compound has an ester and may undergo hydrolysis at high or low pH. This is carbonic acid which has a microscopic pka value of about 3.8 however its equilibrium with CO2 as a lewis acid yields a pKa of about 6.35.

>  <s_epik_cmdline>  (1) 
J2VwaWtfcHl0aG9uJywgJy1waHQnLCAnMS4wJywgJy1waCcsICc3LjQnLCAnLXRuJywgJzgnLCAnLW1hJywgJzUwMCcsICctaW1hZScsICc8aW5maWxlLm1hZT4nLCAnLW9tYWUnLCAnPG91dGZpbGUubWFlPic=

>  <s_epik_input>  (1) 
W09IXUMoPU8pT0MoRikoRilDMT1bQ0hdW0NIMl1bQ0gyXUMoPUM9W0NIXTEpW0NAQEhdKFtDSDJdW0NIMl0yKVtDSDJdW0NIMl1bQ0BASF0oQzIzNClbQ0BIXTNbQ0BdKFtPSF0pKFtDSDJdW09IXSlbQ0BIXShbQ0gyXUM0PU8pW0NAXTU2W0NAQEhdKFtDSDJdNilbQ0gyXVtDSDJdW0NIMl1bQ0BASF0oW0NIXT1PKVtDSDJdW0NIMl1bQ0gyXTU=

>  <s_glide_docking_method>  (1) 
confgen

>  <s_i_glide_gridfile>  (1) 
gpcr_drd2_6luq_protein_autoprepared_prepared

>  <s_lp_Force_Field>  (1) 
S-OPLS

>  <s_lp_Variant>  (1) 
DiffSBDD_13_num_sample_100-1

>  <s_m_source_file>  (1) 
generated__ligand_DiffSBDD_2026-05-06_prepared.sdf

>  <GenAI_Model>  (1) 
DiffSBDD

>  <Protein>  (1) 
generic_title2

$$$$
DiffSBDD_56_num_sample_100
     RDKit          3D

  0  0  0  0  0  0  0  0  0  0999 V3000
M  V30 BEGIN CTAB
M  V30 COUNTS 69 75 0 0 1
M  V30 BEGIN ATOM
M  V30 1 O 6.427326 6.403889 -19.218882 0
M  V30 2 C 11.719076 8.126903 -7.849395 0
M  V30 3 C 11.498376 5.784558 -5.788646 0
M  V30 4 C 9.486724 6.174812 -7.416931 0
M  V30 5 C 8.648108 4.143596 -14.549323 0 CFG=2
M  V30 6 C 9.834937 6.474135 -9.973686 0
M  V30 7 F 9.834976 4.503465 -8.800906 0
M  V30 8 C 8.172681 5.032810 -18.220177 0
M  V30 9 C 10.641828 7.257206 -12.257950 0 CFG=1
M  V30 10 C 7.006491 5.834666 -18.090835 0
M  V30 11 C 12.282198 8.430462 -8.967600 0
M  V30 12 C 8.678152 6.173454 -13.119402 0 CFG=1
M  V30 13 C 11.501020 6.569260 -13.239165 0
M  V30 14 N 7.872173 5.034480 -13.595053 0
M  V30 15 C 10.335828 9.141701 -6.174999 0
M  V30 16 C 10.223056 5.777188 -8.688581 0 CFG=2
M  V30 17 C 7.075165 5.453508 -15.685987 0
M  V30 18 C 5.188597 7.146163 -19.144832 0
M  V30 19 C 5.258152 6.856762 -16.669756 0
M  V30 20 C 11.017103 7.981908 -6.769284 0
M  V30 21 C 8.792590 4.800211 -19.583308 0
M  V30 22 C 6.621739 5.594817 -14.282887 0
M  V30 23 C 8.047755 6.729592 -11.815060 0
M  V30 24 C 4.664108 7.368558 -17.740954 0
M  V30 25 C 8.621059 6.169298 -10.504354 0
M  V30 26 C 6.448209 6.048547 -16.801622 0
M  V30 27 C 10.348230 6.297737 -4.956324 0
M  V30 28 C 10.164818 5.925335 -12.828492 0 CFG=1
M  V30 29 O 9.034714 8.969298 -6.691707 0
M  V30 30 C 10.809390 7.302203 -10.793603 0
M  V30 31 C 8.155987 4.693694 -15.817526 0
M  V30 32 C 8.166554 2.697795 -14.337603 0
M  V30 33 C 11.875847 8.068607 -10.326161 0
M  V30 34 C 8.750468 4.451786 -17.066505 0
M  V30 35 C 10.475368 6.700542 -6.393790 0
M  V30 36 H 11.604974 4.969317 -6.480146 0
M  V30 37 H 12.438145 6.169113 -5.448092 0
M  V30 38 H 8.686620 6.868379 -7.655668 0
M  V30 39 H 8.946838 5.347105 -6.978546 0
M  V30 40 H 9.727468 4.228753 -14.482557 0
M  V30 41 H 10.187641 8.169471 -12.630990 0
M  V30 42 H 13.036217 9.200728 -8.934807 0
M  V30 43 H 8.599506 6.939604 -13.881066 0
M  V30 44 H 12.421942 6.169377 -12.825253 0
M  V30 45 H 11.615490 6.967505 -14.240712 0
M  V30 46 H 10.794068 10.089486 -6.453380 0
M  V30 47 H 10.336063 9.080724 -5.091360 0
M  V30 48 H 11.290181 5.769315 -8.568511 0
M  V30 49 H 5.339118 8.114066 -19.623172 0
M  V30 50 H 4.432208 6.614464 -19.722122 0
M  V30 51 H 4.861609 7.028678 -15.683300 0
M  V30 52 H 9.703533 4.204728 -19.508941 0
M  V30 53 H 8.092560 4.273814 -20.232851 0
M  V30 54 H 9.046841 5.752494 -20.050206 0
M  V30 55 H 5.760421 4.950098 -14.103651 0
M  V30 56 H 6.380128 6.623799 -14.010418 0
M  V30 57 H 6.970720 6.566038 -11.786223 0
M  V30 58 H 8.136463 7.817163 -11.774388 0
M  V30 59 H 3.770479 7.966039 -17.635170 0
M  V30 60 H 7.962840 5.511923 -9.955200 0
M  V30 61 H 10.662433 6.969159 -4.169384 0
M  V30 62 H 9.436493 5.769311 -4.736388 0
M  V30 63 H 10.323373 5.016998 -12.247707 0
M  V30 64 H 9.078224 8.673263 -7.590493 0
M  V30 65 H 8.529058 2.032395 -15.122021 0
M  V30 66 H 8.514691 2.308480 -13.380196 0
M  V30 67 H 7.077698 2.633580 -14.344726 0
M  V30 68 H 12.463106 8.542040 -11.091603 0
M  V30 69 H 9.633266 3.833670 -17.142857 0
M  V30 END ATOM
M  V30 BEGIN BOND
M  V30 1 1 10 1
M  V30 2 1 10 8
M  V30 3 2 11 2
M  V30 4 1 13 9
M  V30 5 1 14 5
M  V30 6 1 14 12
M  V30 7 1 16 4
M  V30 8 1 16 6
M  V30 9 1 16 7
M  V30 10 1 18 1
M  V30 11 2 20 2
M  V30 12 1 20 15
M  V30 13 1 21 8
M  V30 14 1 22 14
M  V30 15 1 22 17
M  V30 16 1 23 12
M  V30 17 1 24 18
M  V30 18 2 24 19
M  V30 19 2 25 6
M  V30 20 1 25 23
M  V30 21 2 26 10
M  V30 22 1 26 17
M  V30 23 1 26 19
M  V30 24 1 27 3
M  V30 25 1 28 9
M  V30 26 1 28 12
M  V30 27 1 28 13
M  V30 28 1 29 15
M  V30 29 1 30 6
M  V30 30 1 30 9
M  V30 31 1 31 5
M  V30 32 2 31 17
M  V30 33 1 32 5
M  V30 34 1 33 11
M  V30 35 2 33 30
M  V30 36 2 34 8
M  V30 37 1 34 31
M  V30 38 1 35 3
M  V30 39 1 35 4
M  V30 40 1 35 20
M  V30 41 1 35 27
M  V30 42 1 36 3
M  V30 43 1 37 3
M  V30 44 1 38 4
M  V30 45 1 39 4
M  V30 46 1 5 40 CFG=3
M  V30 47 1 9 41 CFG=3
M  V30 48 1 42 11
M  V30 49 1 12 43 CFG=3
M  V30 50 1 44 13
M  V30 51 1 45 13
M  V30 52 1 46 15
M  V30 53 1 47 15
M  V30 54 1 16 48 CFG=1
M  V30 55 1 49 18
M  V30 56 1 50 18
M  V30 57 1 51 19
M  V30 58 1 52 21
M  V30 59 1 53 21
M  V30 60 1 54 21
M  V30 61 1 55 22
M  V30 62 1 56 22
M  V30 63 1 57 23
M  V30 64 1 58 23
M  V30 65 1 59 24
M  V30 66 1 60 25
M  V30 67 1 61 27
M  V30 68 1 62 27
M  V30 69 1 28 63 CFG=1
M  V30 70 1 64 29
M  V30 71 1 65 32
M  V30 72 1 66 32
M  V30 73 1 67 32
M  V30 74 1 68 33
M  V30 75 1 69 34
M  V30 END BOND
M  V30 END CTAB
M  END
>  <i_epik_Tot_Q>  (1) 
0

>  <i_epik_Tot_abs_Q>  (1) 
0

>  <i_i_glide_confnum>  (1) 
14

>  <i_i_glide_lignum>  (1) 
114

>  <i_i_glide_posenum>  (1) 
25

>  <i_i_glide_rotatable_bonds>  (1) 
3

>  <i_lp_mmshare_version>  (1) 
72125

>  <i_m_source_file_index>  (1) 
57

>  <i_f3d_flags>  (1) 
0

>  <num_sample>  (1) 
100

>  <b_lp_Chiralities_Consistent>  (1) 
1

>  <r_epik_Charging_Adjusted_Penalty>  (1) 
1.2909634030870925

>  <r_epik_Ionization_Penalty>  (1) 
1.2909642397240775

>  <r_epik_Ionization_Penalty_Charging>  (1) 
0

>  <r_epik_Ionization_Penalty_Neutral>  (1) 
1.2909642397240775

>  <r_epik_State_Penalty>  (1) 
1.2909634030870925

>  <r_glide_ring_energy>  (1) 
1.6773318086129168

>  <r_i_docking_score>  (1) 
1.1202141783926651

>  <r_i_glide_ecoul>  (1) 
-0.020559731212778654

>  <r_i_glide_eff_state_penalty>  (1) 
1.2909634030870925

>  <r_i_glide_einternal>  (1) 
3.3448909080510538

>  <r_i_glide_emodel>  (1) 
17.600055218390303

>  <r_i_glide_emodel_strain>  (1) 
22.32541949570799

>  <r_i_glide_energy>  (1) 
-6.2368454589412261

>  <r_i_glide_erotb>  (1) 
0.18175884728826419

>  <r_i_glide_esite>  (1) 
0

>  <r_i_glide_evdw>  (1) 
-6.2162857277284473

>  <r_i_glide_gscore>  (1) 
-0.17074922469442733

>  <r_i_glide_gscore_strain>  (1) 
4.5813548739269976

>  <r_i_glide_hbond>  (1) 
0

>  <r_i_glide_ligand_efficiency>  (1) 
0.032006119382647573

>  <r_i_glide_ligand_efficiency_ln>  (1) 
0.24591187397136033

>  <r_i_glide_ligand_efficiency_sa>  (1) 
0.10469413883245252

>  <r_i_glide_lipo>  (1) 
-3.4335500317288341

>  <r_i_glide_metal>  (1) 
-0

>  <r_i_glide_rewards>  (1) 
-1.1864146681125156

>  <r_lp_Energy>  (1) 
69.698508000000004

>  <s_epik_cmdline>  (1) 
J2VwaWtfcHl0aG9uJywgJy1waHQnLCAnMS4wJywgJy1waCcsICc3LjQnLCAnLXRuJywgJzgnLCAnLW1hJywgJzUwMCcsICctaW1hZScsICc8aW5maWxlLm1hZT4nLCAnLW9tYWUnLCAnPG91dGZpbGUubWFlPic=

>  <s_epik_input>  (1) 
TzFbQ0gyXVtDSF09W0NIXWMoYzEyKWMzYyhbY0hdYzJbQ0gzXSlbQ0BIXShbQ0gzXSlOKFtDSDJdMylbQ0BASF0oW0NIMl1bQ0hdNClbQ0BASF0oW0NIMl01KVtDQEhdNUMoXEM9NFtDQEhdKEYpW0NIMl1DNjdbQ0gyXVtDSDJdNyk9W0NIXVxbQ0hdPUM9QzZbQ0gyXVtPSF0=

>  <s_glide_docking_method>  (1) 
confgen

>  <s_i_glide_gridfile>  (1) 
gpcr_drd2_6luq_protein_autoprepared_prepared

>  <s_lp_Force_Field>  (1) 
S-OPLS

>  <s_lp_Variant>  (1) 
DiffSBDD_56_num_sample_100-3

>  <s_m_source_file>  (1) 
generated__ligand_DiffSBDD_2026-05-06_prepared.sdf

>  <GenAI_Model>  (1) 
DiffSBDD

>  <Protein>  (1) 
generic_title2

$$$$
DiffSBDD_66_num_sample_100
     RDKit          3D

  0  0  0  0  0  0  0  0  0  0999 V3000
M  V30 BEGIN CTAB
M  V30 COUNTS 88 91 0 0 1
M  V30 BEGIN ATOM
M  V30 1 C 11.116416 2.615420 -17.279929 0
M  V30 2 F 7.708508 -0.797242 -22.353292 0
M  V30 3 C 8.614947 2.296392 -16.384525 0 CFG=1
M  V30 4 N 9.263460 4.588165 -14.429468 0
M  V30 5 C 9.311474 5.185173 -11.946028 0
M  V30 6 F 6.836847 1.946141 -14.816183 0
M  V30 7 O 5.998577 -2.903686 -20.308893 0
M  V30 8 N 10.273674 7.294529 -11.212823 0
M  V30 9 O 6.071581 0.697550 -22.782093 0
M  V30 10 C 8.098088 3.887546 -14.294847 0
M  V30 11 O 9.268826 5.987556 -9.712684 0
M  V30 12 C 7.430855 2.332068 -17.387663 0
M  V30 13 C 9.828007 7.147720 -9.027156 0
M  V30 14 C 7.616175 3.005056 -18.738580 0
M  V30 15 O 7.376637 4.169302 -10.917034 0
M  V30 16 C 9.834682 5.392379 -13.371083 0
M  V30 17 O 7.148594 4.272974 -13.615031 0
M  V30 18 C 8.652620 3.887596 -11.484457 0
M  V30 19 C 7.135386 4.452050 -18.812253 0
M  V30 20 C 5.281837 -2.225273 -19.573468 0
M  V30 21 C 10.688301 7.976466 -10.037098 0
M  V30 22 O 10.262859 6.718556 -18.983101 0
M  V30 23 C 7.670793 -0.203193 -19.697520 0
M  V30 24 C 5.809872 -4.524476 -17.399666 0
M  V30 25 C 6.459476 -0.405755 -21.998552 0 CFG=2
M  V30 26 O 10.770808 6.169193 -13.591117 0
M  V30 27 C 9.817429 3.218464 -16.684730 0 CFG=1
M  V30 28 N 4.567208 -2.744870 -18.565774 0
M  V30 29 C 9.809270 0.667216 -20.796791 0 CFG=2
M  V30 30 C 9.519444 5.768166 -16.760169 0
M  V30 31 C 8.165498 5.575961 -19.146131 0 CFG=1
M  V30 32 O 10.713205 1.754144 -21.030123 0
M  V30 33 C 7.392476 6.909235 -19.143634 0
M  V30 34 C 8.176904 2.375897 -19.792987 0
M  V30 35 C 6.353640 -0.018916 -20.496454 0 CFG=1
M  V30 36 C 9.952230 4.546116 -15.824131 0 CFG=1
M  V30 37 C 8.039743 2.500717 -14.977056 0 CFG=2
M  V30 38 C 9.603626 6.145916 -11.021399 0
M  V30 39 C 4.578810 -4.164429 -18.237258 0
M  V30 40 C 9.937112 1.310158 -22.155238 0
M  V30 41 C 8.720011 0.937781 -19.762333 0 CFG=1
M  V30 42 C 9.536543 5.680402 -18.366377 0 CFG=1
M  V30 43 C 5.166550 -0.711404 -19.776061 0
M  V30 44 H 10.898418 2.114777 -18.218391 0
M  V30 45 H 11.830337 3.404878 -17.517638 0
M  V30 46 H 11.639279 1.876487 -16.692425 0
M  V30 47 H 9.005511 1.279822 -16.427413 0
M  V30 48 H 10.745942 7.477005 -12.092575 0
M  V30 49 H 5.123645 0.695525 -22.793861 0
M  V30 50 H 7.008535 1.339215 -17.497800 0
M  V30 51 H 6.634841 2.886910 -16.913789 0
M  V30 52 H 9.032606 7.778780 -8.645713 0
M  V30 53 H 10.399862 6.852586 -8.156835 0
M  V30 54 H 7.471454 4.920446 -10.342686 0
M  V30 55 H 9.288864 3.609692 -10.644300 0
M  V30 56 H 8.721975 2.978198 -12.071203 0
M  V30 57 H 6.342223 4.471900 -19.560656 0
M  V30 58 H 6.645309 4.726743 -17.876575 0
M  V30 59 H 10.460034 9.030869 -9.994252 0
M  V30 60 H 11.754691 7.827506 -9.874439 0
M  V30 61 H 11.136077 6.731687 -18.618108 0
M  V30 62 H 8.143463 -1.154839 -19.953655 0
M  V30 63 H 7.405325 -0.341452 -18.652398 0
M  V30 64 H 5.804534 -5.573030 -17.097516 0
M  V30 65 H 6.726630 -4.342027 -17.960390 0
M  V30 66 H 5.847617 -3.922067 -16.492625 0
M  V30 67 H 5.779808 -1.217499 -22.248915 0
M  V30 68 H 9.508657 3.529014 -17.620469 0
M  V30 69 H 3.998161 -2.133648 -17.998954 0
M  V30 70 H 10.302211 -0.292535 -20.690824 0
M  V30 71 H 10.229308 6.545131 -16.481480 0
M  V30 72 H 8.541710 6.130248 -16.442154 0
M  V30 73 H 8.446910 5.401222 -20.183359 0
M  V30 74 H 7.131153 7.209053 -18.128333 0
M  V30 75 H 7.968867 7.712810 -19.598984 0
M  V30 76 H 6.461599 6.834045 -19.710383 0
M  V30 77 H 8.281656 2.910652 -20.725407 0
M  V30 78 H 6.094455 1.037675 -20.451767 0
M  V30 79 H 11.022024 4.660383 -15.640766 0
M  V30 80 H 8.633366 1.874668 -14.315869 0
M  V30 81 H 3.669490 -4.385730 -17.678158 0
M  V30 82 H 4.545417 -4.771683 -19.141671 0
M  V30 83 H 10.511517 0.803692 -22.931845 0
M  V30 84 H 9.169559 1.999610 -22.487740 0
M  V30 85 H 9.243545 0.842580 -18.815624 0
M  V30 86 H 10.212607 4.911881 -18.732191 0
M  V30 87 H 5.049535 -0.254821 -18.790789 0
M  V30 88 H 4.230896 -0.517062 -20.292966 0
M  V30 END ATOM
M  V30 BEGIN BOND
M  V30 1 1 10 4
M  V30 2 1 12 3
M  V30 3 1 13 11
M  V30 4 1 14 12
M  V30 5 1 16 4
M  V30 6 1 16 5
M  V30 7 2 17 10
M  V30 8 1 18 5
M  V30 9 1 18 15
M  V30 10 1 19 14
M  V30 11 2 20 7
M  V30 12 1 21 8
M  V30 13 1 21 13
M  V30 14 1 25 2
M  V30 15 1 25 9
M  V30 16 2 26 16
M  V30 17 1 27 1
M  V30 18 1 27 3
M  V30 19 1 28 20
M  V30 20 1 31 19
M  V30 21 1 32 29
M  V30 22 1 33 31
M  V30 23 2 34 14
M  V30 24 1 35 23
M  V30 25 1 35 25
M  V30 26 1 36 4
M  V30 27 1 36 27
M  V30 28 1 36 30
M  V30 29 1 37 3
M  V30 30 1 37 6
M  V30 31 1 37 10
M  V30 32 2 38 5
M  V30 33 1 38 8
M  V30 34 1 38 11
M  V30 35 1 39 24
M  V30 36 1 39 28
M  V30 37 1 40 29
M  V30 38 1 40 32
M  V30 39 1 41 23
M  V30 40 1 41 29
M  V30 41 1 41 34
M  V30 42 1 42 22
M  V30 43 1 42 30
M  V30 44 1 42 31
M  V30 45 1 43 20
M  V30 46 1 43 35
M  V30 47 1 44 1
M  V30 48 1 45 1
M  V30 49 1 46 1
M  V30 50 1 3 47 CFG=1
M  V30 51 1 48 8
M  V30 52 1 49 9
M  V30 53 1 50 12
M  V30 54 1 51 12
M  V30 55 1 52 13
M  V30 56 1 53 13
M  V30 57 1 54 15
M  V30 58 1 55 18
M  V30 59 1 56 18
M  V30 60 1 57 19
M  V30 61 1 58 19
M  V30 62 1 59 21
M  V30 63 1 60 21
M  V30 64 1 61 22
M  V30 65 1 62 23
M  V30 66 1 63 23
M  V30 67 1 64 24
M  V30 68 1 65 24
M  V30 69 1 66 24
M  V30 70 1 25 67 CFG=1
M  V30 71 1 27 68 CFG=3
M  V30 72 1 69 28
M  V30 73 1 29 70 CFG=3
M  V30 74 1 71 30
M  V30 75 1 72 30
M  V30 76 1 31 73 CFG=3
M  V30 77 1 74 33
M  V30 78 1 75 33
M  V30 79 1 76 33
M  V30 80 1 77 34
M  V30 81 1 35 78 CFG=3
M  V30 82 1 36 79 CFG=1
M  V30 83 1 37 80 CFG=1
M  V30 84 1 81 39
M  V30 85 1 82 39
M  V30 86 1 83 40
M  V30 87 1 84 40
M  V30 88 1 41 85 CFG=1
M  V30 89 1 42 86 CFG=1
M  V30 90 1 87 43
M  V30 91 1 88 43
M  V30 END BOND
M  V30 END CTAB
M  END
>  <i_epik_Tot_Q>  (1) 
0

>  <i_epik_Tot_abs_Q>  (1) 
0

>  <i_i_glide_confnum>  (1) 
5

>  <i_i_glide_lignum>  (1) 
130

>  <i_i_glide_posenum>  (1) 
209

>  <i_i_glide_rotatable_bonds>  (1) 
15

>  <i_lp_mmshare_version>  (1) 
72125

>  <i_m_source_file_index>  (1) 
67

>  <i_f3d_flags>  (1) 
0

>  <num_sample>  (1) 
100

>  <b_lp_Chiralities_Consistent>  (1) 
1

>  <r_epik_Charging_Adjusted_Penalty>  (1) 
0.011224841026204068

>  <r_epik_Ionization_Penalty>  (1) 
0.011270599783865109

>  <r_epik_Ionization_Penalty_Charging>  (1) 
8.5422756824624084e-11

>  <r_epik_Ionization_Penalty_Neutral>  (1) 
0.011270599698442352

>  <r_epik_State_Penalty>  (1) 
0.01122484094078131

>  <r_glide_ring_energy>  (1) 
0

>  <r_i_docking_score>  (1) 
6.9805036855991487

>  <r_i_glide_ecoul>  (1) 
-5.1375838458763585

>  <r_i_glide_eff_state_penalty>  (1) 
0.01122484094078131

>  <r_i_glide_einternal>  (1) 
8.4242180652170973

>  <r_i_glide_emodel>  (1) 
51.121109315247374

>  <r_i_glide_emodel_strain>  (1) 
40.168685091406502

>  <r_i_glide_energy>  (1) 
-4.4945747353697154

>  <r_i_glide_erotb>  (1) 
0.43215163049877869

>  <r_i_glide_esite>  (1) 
-0.045334164970991069

>  <r_i_glide_evdw>  (1) 
0.64300911050664356

>  <r_i_glide_gscore>  (1) 
6.9692788446583673

>  <r_i_glide_gscore_strain>  (1) 
9.0421712728516255

>  <r_i_glide_hbond>  (1) 
-0.32000000000000001

>  <r_i_glide_ligand_efficiency>  (1) 
0.16233729501393368

>  <r_i_glide_ligand_efficiency_ln>  (1) 
1.4661227245186483

>  <r_i_glide_ligand_efficiency_sa>  (1) 
0.56873216448024277

>  <r_i_glide_lipo>  (1) 
-0.96394159056997475

>  <r_i_glide_metal>  (1) 
-0

>  <r_i_glide_rewards>  (1) 
-0.43728118179494974

>  <r_lp_Energy>  (1) 
55.849022999999995

>  <r_lp_tautomer_probability>  (1) 
0.49997499999946832

>  <s_epik_Chemistry_Notes>  (1) 
This compound has an imine and may undergo hydrolysis.

>  <s_epik_cmdline>  (1) 
J2VwaWtfcHl0aG9uJywgJy1waHQnLCAnMS4wJywgJy1waCcsICc3LjQnLCAnLXRuJywgJzgnLCAnLW1hJywgJzUwMCcsICctaW1hZScsICc8aW5maWxlLm1hZT4nLCAnLW9tYWUnLCAnPG91dGZpbGUubWFlPic=

>  <s_epik_input>  (1) 
TzFbQ0gyXVtDSDJdTj1DMVtDQEhdKFtDSDJdW09IXSlDKD1PKU4oQyg9TylbQ0BIXTJGKVtDQEBIXShbQ0BASF0zW0NIM10pW0NIMl1bQ0BIXShbT0hdKVtDQEhdKFtDSDNdKVtDSDJdQyhcW0NIMl1bQ0BIXTIzKT1bQ0hdXFtDQEhdKFtDQEBIXTRPW0NIMl00KVtDSDJdW0NAQEhdKFtDQEBIXShGKVtPSF0pW0NIMl1DKD1PKVtOSF1bQ0gyXVtDSDNd

>  <s_glide_docking_method>  (1) 
confgen

>  <s_i_glide_gridfile>  (1) 
gpcr_drd2_6luq_protein_autoprepared_prepared

>  <s_lp_Force_Field>  (1) 
S-OPLS

>  <s_lp_Variant>  (1) 
DiffSBDD_66_num_sample_100-2

>  <s_m_source_file>  (1) 
generated__ligand_DiffSBDD_2026-05-06_prepared.sdf

>  <GenAI_Model>  (1) 
DiffSBDD

>  <Protein>  (1) 
generic_title2

$$$$
